   58
FINAL HEAT OF FORMATION = ************
 I    -0.432342     0.603532     4.639265
 I    -0.405929    -4.534414    -0.350469
 C     0.819529    -2.962180     4.392820
 C     0.850304    -4.167867     3.203175
 C     0.098372    -3.135405     2.325758
 C    -0.451689    -2.976777     1.068285
 C    -1.059491    -1.672455     0.790534
 C    -1.665700    -1.383117    -0.481648
 C    -2.242783    -0.152132    -0.756840
 C    -2.246487     0.872570     0.237200
 C    -1.673033     0.637025     1.478063
 C    -1.063370    -0.623536     1.808144
 C    -0.461979    -0.860226     3.123504
 C     0.092792    -2.109967     3.321977
 C     0.064691    -3.318101     5.700162
 C    -1.304255    -3.543726     5.917821
 C    -1.747828    -3.872127     7.220050
 C    -0.835112    -3.965186     8.290146
 C     0.534639    -3.689365     8.090437
 C     0.977128    -3.352316     6.796149
 C     2.302094    -2.846986     6.326416
 C     3.480058    -2.569837     7.047467
 C     4.544660    -1.920212     6.386707
 C     4.417314    -1.527611     5.039080
 C     3.239429    -1.813744     4.310185
 C     2.194141    -2.504128     4.945343
 C     0.172304    -5.513892     3.568094
 C    -1.180930    -5.811661     3.797887
 C    -1.545375    -7.134738     4.140233
 C    -0.570494    -8.147303     4.244022
 C     0.784815    -7.868316     3.966015
 C     1.148796    -6.553517     3.615092
 C     2.445267    -6.011820     3.107887
 C     3.663866    -6.664174     2.835769
 C     4.687304    -5.946698     2.180066
 C     4.480432    -4.612331     1.775720
 C     3.261502    -3.952319     2.056740
 C     2.256989    -4.642722     2.754339
 H    -1.656386    -2.179405    -1.238352
 H    -2.697575     0.037381    -1.738425
 H    -2.704155     1.846231     0.016336
 H    -1.669766     1.417456     2.251157
 H    -2.030644    -3.441539     5.102397
 H    -2.816937    -4.048679     7.398910
 H    -1.197822    -4.225214     9.293768
 H     1.237030    -3.715284     8.934285
 H     3.561974    -2.833777     8.110340
 H     5.468693    -1.692587     6.935146
 H     5.238079    -0.986671     4.549308
 H     3.144049    -1.472592     3.272550
 H    -1.955764    -5.043494     3.689643
 H    -2.601856    -7.375146     4.319679
 H    -0.872356    -9.168049     4.514927
 H     1.536989    -8.667718     4.001520
 H     3.808593    -7.718345     3.107559
 H     5.642061    -6.441416     1.956186
 H     5.270482    -4.079867     1.229401
 H     3.102384    -2.925406     1.705866
