   66
 
Cl     2.908725     2.531959     0.592844  0.035837
Cl     0.710338    -3.225519    -0.665582  0.048827
 C     0.443106    -0.533373    -0.331021  0.075355
 C    -1.006889    -0.222598     0.020726 -0.164402
 C    -0.470173     1.400944     0.062027  0.011895
 C     0.920205     0.761920    -0.039569  0.133265
 C     2.265536     1.005502     0.055928 -0.271565
 C     3.190541    -0.043162    -0.254950  0.124008
 C     4.592008     0.162115    -0.251225 -0.227195
 C     5.465623    -0.853910    -0.553201 -0.171192
 C     4.978754    -2.135924    -0.868760 -0.172742
 C     3.626540    -2.375584    -0.875303 -0.222532
 C     2.695567    -1.351624    -0.576462  0.124241
 C     1.285902    -1.588757    -0.550748 -0.270464
 C    -1.308992    -0.974166     1.356864  0.133401
 C    -0.269364    -1.435402     2.181855 -0.215590
 C    -0.513960    -2.164177     3.340654 -0.165918
 C    -1.816054    -2.470089     3.721341 -0.165656
 C    -2.861761    -2.040126     2.914562 -0.175017
 C    -2.609837    -1.317537     1.750627 -0.206449
 C    -2.108567    -0.582210    -0.970509  0.084682
 C    -1.916652    -1.545656    -1.964836 -0.178025
 C    -2.940102    -1.901945    -2.838263 -0.176158
 C    -4.192040    -1.303097    -2.740842 -0.167955
 C    -4.404469    -0.344410    -1.755192 -0.172785
 C    -3.377020     0.005813    -0.882944 -0.223539
 C    -0.814617     2.234884     1.379100  0.019974
 C    -2.319413     2.189537     1.694698 -0.536914
 C    -0.422272     3.728838     1.352233 -0.544127
 C    -0.080695     1.692625     2.622351 -0.541904
 C    -0.683125     2.199137    -1.340546  0.042209
 C    -0.597621     1.316269    -2.607965 -0.546058
 C    -2.013833     2.960780    -1.471034 -0.537329
 C     0.465629     3.211717    -1.559531 -0.536886
 H     4.972861     1.148093    -0.010655  0.197957
 H     6.535242    -0.664159    -0.548961  0.178800
 H     5.671318    -2.937624    -1.108884  0.178863
 H     3.251037    -3.363584    -1.117248  0.197354
 H     0.761605    -1.209785     1.934945  0.186642
 H     0.326805    -2.495349     3.944409  0.172386
 H    -2.010152    -3.043376     4.623699  0.170361
 H    -3.889637    -2.277788     3.176021  0.170549
 H    -3.457452    -1.044936     1.134700  0.187885
 H    -0.946066    -2.008390    -2.085381  0.179372
 H    -2.749780    -2.649524    -3.603900  0.172426
 H    -4.990861    -1.577873    -3.424169  0.170597
 H    -5.373608     0.138704    -1.660523  0.171291
 H    -3.570092     0.754452    -0.122335  0.183722
 H    -2.670621     1.169677     1.864900  0.190095
 H    -2.930831     2.652044     0.915885  0.175968
 H    -2.502033     2.746598     2.621735  0.170338
 H    -0.893342     4.308496     0.558317  0.177583
 H    -0.751388     4.169224     2.300997  0.167527
 H     0.659627     3.869866     1.296184  0.194191
 H    -0.235412     2.393857     3.451054  0.163808
 H     0.999012     1.615951     2.462239  0.179454
 H    -0.452084     0.724577     2.950659  0.203025
 H     0.215544     0.585283    -2.568710  0.179919
 H    -1.525067     0.792678    -2.832470  0.200618
 H    -0.390562     1.977174    -3.458048  0.168242
 H    -2.877995     2.298145    -1.408668  0.182230
 H    -2.041078     3.421955    -2.466076  0.170033
 H    -2.139233     3.766513    -0.746008  0.175923
 H     0.206579     3.834601    -2.423892  0.168342
 H     0.663328     3.879916    -0.726475  0.187664
 H     1.398518     2.697105    -1.807201  0.183568
