   58
 
 I     3.525747     1.683559    -0.216989 28.093099
 I    -3.526919     1.681307     0.217000 28.093178
 C     0.840920    -0.845591     0.056234 -0.195776
 C    -0.840464    -0.846144    -0.056278 -0.195773
 C    -0.702226     0.654185     0.045469  0.148607
 C    -1.429746     1.805089     0.099573 -0.320110
 C    -0.722837     3.050073     0.055364  0.104734
 C    -1.388749     4.298087     0.107825 -0.232053
 C    -0.702999     5.487046     0.054655 -0.175509
 C     0.699369     5.487499    -0.054922 -0.175538
 C     1.385886     4.298981    -0.108054 -0.232041
 C     0.720779     3.050539    -0.055553  0.104779
 C     1.428492     1.806008    -0.099723 -0.320060
 C     0.701700     0.654643    -0.045667  0.148616
 C     1.370942    -1.335319     1.388171  0.118998
 C     1.260456    -0.764312     2.646976 -0.230460
 C     1.839139    -1.415720     3.738739 -0.171874
 C     2.524484    -2.617563     3.565150 -0.177492
 C     2.679891    -3.168034     2.293817 -0.199543
 C     2.116062    -2.511047     1.205093  0.056721
 C     2.256321    -2.745306    -0.232539  0.044739
 C     2.981489    -3.713425    -0.918451 -0.202546
 C     3.087338    -3.617405    -2.304617 -0.177157
 C     2.494599    -2.555622    -2.985714 -0.176462
 C     1.752520    -1.592302    -2.299008 -0.190532
 C     1.608180    -1.703173    -0.923001  0.096087
 C    -1.607096    -1.704198     0.923026  0.096082
 C    -1.751542    -1.593308     2.299019 -0.190538
 C    -2.492854    -2.557159     2.985811 -0.176402
 C    -3.084722    -3.619490     2.304812 -0.177104
 C    -2.978782    -3.715559     0.918656 -0.202482
 C    -2.254400    -2.746915     0.232656  0.044757
 C    -2.114314    -2.512677    -1.204997  0.056717
 C    -2.677614    -3.170205    -2.293668 -0.199543
 C    -2.522626    -2.619726    -3.565049 -0.177461
 C    -1.838221    -1.417363    -3.738738 -0.171899
 C    -1.260059    -0.765402    -2.647029 -0.230503
 C    -1.370109    -1.336383    -1.388175  0.118967
 H    -2.471141     4.300400     0.191137  0.217104
 H    -1.246712     6.426447     0.097365  0.181478
 H     1.242471     6.427252    -0.097668  0.181464
 H     2.468275     4.301988    -0.191374  0.217084
 H     0.752006     0.187013     2.784135  0.186668
 H     1.761905    -0.976204     4.729376  0.171332
 H     2.966437    -3.114343     4.424648  0.171173
 H     3.257522    -4.078553     2.156373  0.172411
 H     3.478664    -4.518094    -0.382806  0.171473
 H     3.655568    -4.362165    -2.855436  0.170741
 H     2.612838    -2.471370    -4.062404  0.170827
 H     1.313679    -0.764279    -2.842953  0.173105
 H    -1.313381    -0.764874     2.842889  0.173109
 H    -2.611181    -2.472888     4.062489  0.170825
 H    -3.652344    -4.364662     2.855699  0.170717
 H    -3.475295    -4.520685     0.383084  0.171463
 H    -3.254533    -4.081164    -2.156147  0.172432
 H    -2.964182    -3.116930    -4.424506  0.171180
 H    -1.761328    -0.977871    -4.729414  0.171340
 H    -0.752340     0.186302    -2.784269  0.186658
