   54
 
 C     0.000168     0.645650     0.846807 -0.214988
 C    -0.000181     0.645362    -0.846209 -0.214859
 C     0.000400    -1.901200     0.674905 -0.051903
 C     0.000033    -1.901673    -0.675709 -0.051901
 C    -1.222693    -0.021304     1.448105  0.151232
 C    -2.294453     0.636347     2.036523 -0.222208
 H    -2.308500     1.722443     2.077643  0.173326
 C    -3.354645    -0.102542     2.566781 -0.171038
 H    -4.189934     0.414291     3.031684  0.167326
 C    -3.348225    -1.491462     2.500070 -0.174039
 H    -4.177637    -2.059233     2.913111  0.167753
 C    -2.280109    -2.162195     1.899802 -0.205875
 H    -2.274158    -3.246731     1.834218  0.170686
 C    -1.224501    -1.430518     1.379246  0.048371
 C     1.223446    -0.021085     1.447592  0.151212
 C     2.295054     0.636768     2.036031 -0.222194
 H     2.309008     1.722879     2.076949  0.173348
 C     3.355382    -0.101901     2.566338 -0.171029
 H     4.190439     0.415102     3.031464  0.167325
 C     3.349247    -1.490819     2.499640 -0.174040
 H     4.178750    -2.058420     2.912731  0.167770
 C     2.281299    -2.161763     1.899299 -0.205901
 H     2.275649    -3.246293     1.833552  0.170671
 C     1.225565    -1.430315     1.378703  0.048361
 C    -1.223412    -0.021309    -1.447084  0.151020
 C    -2.295442     0.636837    -2.034580 -0.222177
 H    -2.309564     1.722964    -2.074735  0.173368
 C    -3.355732    -0.101617    -2.565187 -0.171004
 H    -4.191295     0.415555    -3.029220  0.167303
 C    -3.349228    -1.490597    -2.499802 -0.174059
 H    -4.178466    -2.057990    -2.913692  0.167733
 C    -2.280992    -2.161845    -1.900367 -0.205968
 H    -2.275132    -3.246429    -1.835487  0.170668
 C    -1.225400    -1.430610    -1.379202  0.048370
 C     1.222850    -0.021175    -1.447599  0.150942
 C     2.294578     0.637188    -2.035395 -0.222139
 H     2.308393     1.723324    -2.075625  0.173368
 C     3.354904    -0.101035    -2.566239 -0.171059
 H     4.190237     0.416295    -3.030483  0.167292
 C     3.348663    -1.490021    -2.500843 -0.174076
 H     4.178045    -2.057279    -2.914661  0.167755
 C     2.280674    -2.161473    -1.901203 -0.205984
 H     2.274947    -3.246071    -1.836599  0.170651
 C     1.225031    -1.430497    -1.379782  0.048467
 C    -0.000005     2.148390     0.694393  0.108882
 C    -0.000201     3.321939     1.433641 -0.230917
 H    -0.000137     3.335009     2.520541  0.184621
 C    -0.000479     4.513552     0.698854 -0.180190
 H    -0.000552     5.464789     1.224833  0.173507
 C    -0.000641     4.513311    -0.699587 -0.180150
 H    -0.000895     5.464340    -1.225940  0.173527
 C    -0.000507     3.321367    -1.433838 -0.230813
 H    -0.000727     3.333853    -2.520732  0.184638
 C    -0.000193     2.148176    -0.694032  0.108774
