   23
 
 C    -3.060577     1.179374    -0.000000  0.102884
 C    -4.442963     1.197275     0.000023 -0.213597
 C    -5.138111    -0.008912     0.000038 -0.086008
 C    -4.424863    -1.207490     0.000021 -0.216848
 C    -3.045722    -1.169611     0.000002  0.107918
 N    -2.390207     0.010584    -0.000002 -0.463022
 C    -0.921325     0.004088    -0.000019  0.154738
 C    -0.020617     1.248607    -0.000570 -0.379676
 C    -0.021630    -0.624560     1.083169 -0.346753
 C    -0.021674    -0.625465    -1.082726 -0.346799
 C     0.894146    -0.003030    -0.000066 -0.124066
 I     3.000033     0.000156     0.000018 28.139041
 H    -2.454724     2.077509     0.000006  0.274692
 H    -4.959716     2.150589     0.000032  0.262788
 H    -6.223709    -0.017037     0.000082  0.262353
 H    -4.929093    -2.167508     0.000027  0.262853
 H    -2.426482    -2.059070    -0.000014  0.264053
 H    -0.001677     1.852013     0.911256  0.226543
 H    -0.001710     1.851215    -0.912926  0.226542
 H    -0.009346    -1.715767     1.151294  0.218205
 H    -0.017171    -0.138743     2.061946  0.228058
 H    -0.017269    -0.140482    -2.061920  0.228063
 H    -0.009395    -1.716728    -1.149945  0.218196
