   72
 
 N     1.567033     0.500506     0.234270 -0.611163
 N    -1.545946     0.499400     0.175089 -0.613901
 C     4.218368    -3.056884     0.384351 -0.262632
 H     4.016571    -4.081123     0.693394  0.155762
 C     3.160218    -2.266806    -0.064300  0.127175
 C    -3.423361    -0.903204    -0.527038 -0.042306
 C     3.408874    -0.941031    -0.460968 -0.042717
 C     0.963356     1.739346     0.195028  0.003965
 C     2.265217    -0.070546    -0.922323 -0.230808
 H     2.634262     0.732883    -1.567928  0.202719
 H     1.555380    -0.657226    -1.517364  0.190841
 C     5.522192    -2.568338     0.451166  0.157144
 B    -1.425824     3.096706    -0.671979 -0.027761
 C    -0.944960     1.739000     0.179366  0.006698
 B     0.033265     2.170148    -1.160919 -0.000149
 C    -5.683522    -1.173613     0.287615 -0.262222
 H    -6.634854    -0.729492     0.575616  0.157642
 C     4.714156    -0.422100    -0.382496  0.126950
 C    -3.248476    -2.296315    -0.464790  0.127382
 C     5.745591    -1.246321     0.068967 -0.263956
 H     6.753685    -0.839778     0.128398  0.157444
 C    -2.294865    -0.008539    -0.979927 -0.230369
 H    -1.614403    -0.552519    -1.643418  0.191082
 H    -2.693635     0.833631    -1.555960  0.203366
 B     1.475021     3.101385    -0.641049 -0.023070
 B    -0.011382     2.105675     1.556607 -0.057832
 C    -4.655766    -0.337406    -0.146966  0.126122
 B     0.031393     3.949619    -1.189947 -0.067591
 C    -4.303134    -3.098034    -0.025407 -0.264666
 H    -4.160765    -4.176473     0.017468  0.155202
 C    -5.528330    -2.557706     0.359132  0.157560
 B    -1.449279     3.058582     1.094707 -0.027940
 B     1.448937     3.045820     1.125102 -0.037857
 C     6.656159    -3.444864     0.904716 -0.605910
 H     7.118515    -3.961731     0.053849  0.198868
 H     6.313666    -4.213443     1.605175  0.187730
 H     7.441701    -2.861929     1.396482  0.189243
 C     1.770658    -2.843451    -0.112014 -0.628670
 H     1.729820    -3.807695     0.403070  0.188805
 H     1.437930    -3.009182    -1.145232  0.194869
 H     1.042229    -2.174052     0.358647  0.206311
 B    -0.866160     4.501888     0.254428 -0.148085
 C    -1.953844    -2.946466    -0.874615 -0.631509
 H    -1.952347    -4.007897    -0.609612  0.188616
 H    -1.092376    -2.478209    -0.388191  0.207738
 H    -1.791411    -2.879562    -1.958241  0.194600
 B     0.894060     4.499645     0.277153 -0.146367
 C    -4.895593     1.146966    -0.219061 -0.628323
 H    -5.873771     1.401989     0.198618  0.190482
 H    -4.876521     1.509431    -1.254817  0.198808
 H    -4.138962     1.718114     0.330287  0.213259
 B    -0.004930     3.876099     1.689332 -0.059153
 C    -6.641688    -3.434824     0.860210 -0.606130
 H    -6.645518    -3.479254     1.956964  0.198160
 H    -6.540702    -4.460606     0.491795  0.187374
 H    -7.620854    -3.056407     0.548309  0.190308
 C     5.025549     0.999867    -0.768273 -0.627199
 H     6.071539     1.237393    -0.554121  0.190971
 H     4.402988     1.720143    -0.224944  0.211272
 H     4.861734     1.178403    -1.838478  0.197484
 H     0.038210     1.442088    -2.099331  0.068131
 H    -2.454405     2.901107     1.712851  0.063030
 H    -0.019271     1.307604     2.439151  0.076074
 H     1.538028     5.500745     0.310559  0.056962
 H    -2.409446     3.004857    -1.333907  0.066401
 H     2.437898     2.880957     1.767367  0.063709
 H    -1.508533     5.504510     0.265742  0.056755
 H     0.039768     4.550220    -2.217901  0.054237
 H     2.476699     2.998554    -1.274278  0.063589
 H    -0.013262     4.416179     2.750435  0.055728
 H     2.008406     0.296402     1.120724  0.371206
 H    -1.911908     0.211805     1.071911  0.370171
