   55
 
 B    -2.261280    -0.032925    -1.452432  0.026069
 H    -1.492875    -0.102950    -2.352649  0.084964
 B    -3.052570     1.439030    -0.939053 -0.012109
 H    -2.883929     2.426959    -1.576696  0.072363
 B    -2.967388     1.525756     0.840765 -0.047242
 H    -2.785035     2.571843     1.373755  0.075768
 B    -2.156864     0.096750     1.471042  0.049680
 H    -1.324187     0.118651     2.312692  0.085097
 B    -3.032889    -1.344706     1.006822 -0.029575
 H    -2.872239    -2.341900     1.633304  0.071511
 B    -3.084901    -1.426870    -0.776978 -0.032357
 H    -2.967689    -2.476736    -1.321263  0.073906
 B    -3.996954    -0.007317    -1.374486 -0.092984
 H    -4.630620    -0.060044    -2.380583  0.063958
 B    -3.888046     0.143847     1.507249 -0.092956
 H    -4.451947     0.220618     2.552569  0.063885
 B    -4.482497    -0.818896     0.132674 -0.141851
 H    -5.490677    -1.447571     0.202389  0.063694
 B    -4.453497     0.968471     0.034970 -0.141934
 H    -5.438566     1.636324     0.045718  0.064293
 N    -0.340096     1.187385    -0.169355 -0.427037
 N    -0.377087    -1.180693     0.063824 -0.427300
 C    -1.707925     0.823809    -0.060083 -0.060144
 C    -1.741446    -0.779782     0.045765 -0.048512
 C     0.424985    -0.034204    -0.415168 -0.054803
 H     1.381001     0.010371     0.113588  0.217946
 H     0.633593    -0.147786    -1.491532  0.192930
 C    -0.057679    -2.439906    -0.590318 -0.268488
 H    -0.176011    -2.366264    -1.686319  0.178372
 H    -0.782448    -3.183363    -0.238540  0.222713
 C     1.343299    -2.893384    -0.256632  0.089870
 C     1.795870    -2.879968     1.066064 -0.186432
 H     1.136692    -2.506779     1.845911  0.185197
 C     3.074578    -3.329293     1.377519 -0.172796
 H     3.415707    -3.313922     2.409309  0.175260
 C     3.916284    -3.801282     0.371329 -0.165968
 H     4.915068    -4.152622     0.615677  0.174666
 C     3.473021    -3.816553    -0.947553 -0.170148
 H     4.124647    -4.177737    -1.738597  0.175509
 C     2.193934    -3.360126    -1.258693 -0.208920
 H     1.852851    -3.367104    -2.291867  0.170472
 C     0.206152     2.102636     0.827645 -0.271083
 H     0.361067     1.609749     1.800703  0.184293
 H    -0.542238     2.887056     0.983453  0.226068
 C     1.499193     2.724040     0.357435  0.088933
 C     2.580480     2.843155     1.231138 -0.210176
 H     2.497600     2.453109     2.243601  0.169104
 C     3.761881     3.456060     0.819085 -0.169818
 H     4.595781     3.541160     1.510634  0.174652
 C     3.874999     3.948807    -0.477269 -0.166250
 H     4.797038     4.422799    -0.802717  0.174209
 C     2.801590     3.826742    -1.358505 -0.172853
 H     2.884789     4.207735    -2.372950  0.175588
 C     1.621321     3.219217    -0.944119 -0.185224
 H     0.784123     3.116035    -1.629599  0.185972
