   58
FINAL HEAT OF FORMATION = ************
 I     0.537899     0.756750     4.278098
 I    -1.246711    -4.860638     0.192898
 C     0.928559    -2.993552     4.405255
 C     0.817627    -4.233576     3.288882
 C    -0.032177    -3.242415     2.482308
 C    -0.776131    -3.115994     1.353597
 C    -1.198497    -1.794588     0.971416
 C    -1.978827    -1.553370    -0.189150
 C    -2.364791    -0.284011    -0.555015
 C    -1.985734     0.824381     0.230417
 C    -1.230337     0.639434     1.365863
 C    -0.809701    -0.649540     1.784880
 C    -0.033624    -0.855103     2.978968
 C     0.321721    -2.127262     3.293279
 C    -0.074690    -3.134246     5.555095
 C    -1.463182    -3.145979     5.519552
 C    -2.171028    -3.273193     6.722677
 C    -1.491092    -3.366145     7.941502
 C    -0.094362    -3.304220     7.983795
 C     0.608955    -3.176396     6.787149
 C     2.042880    -2.951965     6.532941
 C     3.102987    -2.841143     7.428724
 C     4.372724    -2.523464     6.936388
 C     4.568957    -2.314841     5.569030
 C     3.505119    -2.434203     4.664305
 C     2.241259    -2.760741     5.141954
 C     0.416527    -5.628081     3.751988
 C    -0.747098    -6.082863     4.361267
 C    -0.845387    -7.432089     4.728034
 C     0.209679    -8.316803     4.491900
 C     1.380068    -7.872239     3.868885
 C     1.476715    -6.534315     3.495916
 C     2.537334    -5.834146     2.750287
 C     3.715688    -6.311758     2.179016
 C     4.481759    -5.446574     1.390948
 C     4.058568    -4.133959     1.157446
 C     2.874234    -3.653845     1.733271
 C     2.137800    -4.496345     2.556199
 H    -2.268800    -2.401905    -0.794644
 H    -2.960184    -0.136462    -1.448037
 H    -2.289772     1.822918    -0.059800
 H    -0.942645     1.490978     1.968228
 H    -1.991102    -3.043579     4.578453
 H    -3.254605    -3.284583     6.708279
 H    -2.052944    -3.461541     8.863337
 H     0.427685    -3.333925     8.933238
 H     2.946336    -2.987233     8.491317
 H     5.207791    -2.429958     7.620921
 H     5.554690    -2.057843     5.199618
 H     3.678082    -2.285257     3.609665
 H    -1.565869    -5.410253     4.565152
 H    -1.752403    -7.789758     5.200871
 H     0.117281    -9.356040     4.785338
 H     2.192724    -8.561532     3.670252
 H     4.024498    -7.340654     2.323479
 H     5.398510    -5.803576     0.936330
 H     4.642594    -3.486236     0.514132
 H     2.531144    -2.646425     1.527701
