  212
 
 C     0.807849    -0.003396     0.019779
 C    -0.807849     0.003396    -0.019779
 C     1.422753     0.335109    -1.347291
 C    -1.422753    -0.335109     1.347291
 C    -1.388276     1.370895    -0.411877
 C     1.388276    -1.370895     0.411877
 C     1.366419     1.003024     1.035790
 C    -1.366419    -1.003024    -1.035790
 C     0.986185     0.962781     2.377581
 C    -0.986185    -0.962781    -2.377581
 C    -1.077979    -1.497434     2.044869
 C     1.077979     1.497434    -2.044869
 C     0.973921    -2.555563    -0.201784
 C    -0.973921     2.555563     0.201784
 C     2.357892     1.920981     0.669480
 C    -2.357892    -1.920981    -0.669480
 C    -2.413329     0.478486     1.900937
 C     2.413329    -0.478486    -1.900937
 C     2.456930    -1.449177     1.307296
 C    -2.456930     1.449177    -1.307296
 C     1.507086     1.849963     3.322177
 C    -1.507086    -1.849963    -3.322177
 C    -1.605710    -1.780826     3.303822
 C     1.605710     1.780826    -3.303822
 C     1.531720    -3.790060     0.129862
 C    -1.531720     3.790060    -0.129862
 C     2.902328     2.809150     1.593644
 C    -2.902328    -2.809150    -1.593644
 C    -2.988721     0.196419     3.141246
 C     2.988721    -0.196419    -3.141246
 C     3.062363    -2.667779     1.624310
 C    -3.062363     2.667779    -1.624310
 C     2.458223     2.781391     2.918732
 C    -2.458223    -2.781391    -2.918732
 C    -2.568688    -0.929203     3.846088
 C     2.568688     0.929203    -3.846088
 C     2.578037    -3.841100     1.050941
 C    -2.578037     3.841100    -1.050941
 H     0.283580     0.210465     2.730403
 H    -0.283580    -0.210465    -2.730403
 H    -0.391803    -2.217629     1.603078
 H     0.391803     2.217629    -1.603078
 H     0.207892    -2.538410    -0.975235
 H    -0.207892     2.538410     0.975235
 H     2.739924     1.937689    -0.351499
 H    -2.739924    -1.937689     0.351499
 H    -2.783448     1.354067     1.364707
 H     2.783448    -1.354067    -1.364707
 H     2.869067    -0.548601     1.766609
 H    -2.869067     0.548601    -1.766609
 C     0.999639     1.768530     4.749517
 C    -0.999639    -1.768530    -4.749517
 C    -1.164663    -3.032753     4.038852
 C     1.164663     3.032753    -4.038852
 C     0.945274    -5.040024    -0.498615
 C    -0.945274     5.040024     0.498615
 C     4.013369     3.768936     1.211114
 C    -4.013369    -3.768936    -1.211114
 C    -4.105883     1.081147     3.662264
 C     4.105883    -1.081147    -3.662264
 C     4.260312    -2.648142     2.554847
 C    -4.260312     2.648142    -2.554847
 H     2.878307     3.482546     3.634023
 H    -2.878307    -3.482546    -3.634023
 H    -3.007299    -1.156757     4.813078
 H     3.007299     1.156757    -4.813078
 H     3.021897    -4.796599     1.311747
 H    -3.021897     4.796599    -1.311747
 C     4.213881    -1.021244    -5.195935
 C    -4.213881     1.021244     5.195935
 C    -4.761176     4.056729    -2.913214
 C     4.761176    -4.056729     2.913214
 C     3.708990     5.174773     1.760790
 C    -3.708990    -5.174773    -1.760790
 C     5.414021    -0.568555    -3.030419
 C    -5.414021     0.568555     3.030419
 C    -5.396368     1.887487    -1.842637
 C     5.396368    -1.887487     1.842637
 C     5.318733     3.232007     1.829115
 C    -5.318733    -3.232007    -1.829115
 C     3.891233    -2.554438    -3.268223
 C    -3.891233     2.554438     3.268223
 C    -3.890093     1.925396    -3.863239
 C     3.890093    -1.925396     3.863239
 C     4.202389     3.887929    -0.310580
 C    -4.202389    -3.887929     0.310580
 C     1.349534     2.895240    -5.560821
 C    -1.349534    -2.895240     5.560821
 C    -1.840790     6.274542     0.304377
 C     1.840790    -6.274542    -0.304377
 C     1.832288     2.620928     5.721517
 C    -1.832288    -2.620928    -5.721517
 C    -0.321498     3.329505    -3.776547
 C     0.321498    -3.329505     3.776547
 C     0.414970     5.293940    -0.178105
 C    -0.414970    -5.293940     0.178105
 C    -0.453917     2.273269     4.764035
 C     0.453917    -2.273269    -4.764035
 C     2.024082     4.200290    -3.521877
 C    -2.024082    -4.200290     3.521877
 C    -0.740797     4.834963     2.010731
 C     0.740797    -4.834963    -2.010731
 C     1.041620     0.308871     5.239197
 C    -1.041620    -0.308871    -5.239197
 H     0.921765     3.753558    -6.088958
 H    -0.921765    -3.753558     6.088958
 H    -1.424801     7.147329     0.818430
 H     1.424801    -7.147329    -0.818430
 H     1.472748     2.507812     6.749705
 H    -1.472748    -2.507812    -6.749705
 H     2.405288     2.844057    -5.842858
 H    -2.405288    -2.844057     5.842858
 H    -2.844344     6.104844     0.708427
 H     2.844344    -6.104844    -0.708427
 H     2.886111     2.324375     5.709926
 H    -2.886111    -2.324375    -5.709926
 H     0.853226     1.994548    -5.939212
 H    -0.853226    -1.994548     5.939212
 H    -1.938875     6.544333    -0.751901
 H     1.938875    -6.544333     0.751901
 H     1.773747     3.686646     5.478652
 H    -1.773747    -3.686646    -5.478652
 H     1.760018     5.137956    -4.018633
 H    -1.760018    -5.137956     4.018633
 H    -0.425122     5.760698     2.499483
 H     0.425122    -5.760698    -2.499483
 H     0.775498     0.237317     6.297492
 H    -0.775498    -0.237317    -6.297492
 H     1.885787     4.343137    -2.443522
 H    -1.885787    -4.343137     2.443522
 H     0.035396     4.085381     2.220325
 H    -0.035396    -4.085381    -2.220325
 H     0.332546    -0.324352     4.688453
 H    -0.332546     0.324352    -4.688453
 H     3.089058     4.017214    -3.697015
 H    -3.089058    -4.017214     3.697015
 H    -1.666340     4.499515     2.490026
 H     1.666340    -4.499515    -2.490026
 H     2.040045    -0.121824     5.114388
 H    -2.040045     0.121824    -5.114388
 H    -0.684965     4.146282    -4.405451
 H     0.684965    -4.146282     4.405451
 H     0.892632     6.194817     0.216082
 H    -0.892632    -6.194817    -0.216082
 H    -0.879589     2.232278     5.770024
 H     0.879589    -2.232278    -5.770024
 H    -0.942548     2.448114    -3.976734
 H     0.942548    -2.448114     3.976734
 H     0.300406     5.423270    -1.259516
 H    -0.300406    -5.423270     1.259516
 H    -0.519039     3.307965     4.413307
 H     0.519039    -3.307965    -4.413307
 H    -0.509108     3.623729    -2.734883
 H     0.509108    -3.623729     2.734883
 H     1.100652     4.450972    -0.012460
 H    -1.100652    -4.450972     0.012460
 H    -1.092302     1.659519     4.111415
 H     1.092302    -1.659519    -4.111415
 H     4.947033    -1.743582    -5.569122
 H    -4.947033     1.743582     5.569122
 H    -5.610191     4.007791    -3.603189
 H     5.610191    -4.007791     3.603189
 H     4.432944     5.909462     1.395677
 H    -4.432944    -5.909462    -1.395677
 H     3.251917    -1.252406    -5.667398
 H    -3.251917     1.252406     5.667398
 H    -3.979532     4.647722    -3.401977
 H     3.979532    -4.647722     3.401977
 H     2.710479     5.507531     1.454056
 H    -2.710479    -5.507531    -1.454056
 H     4.534653    -0.035316    -5.545794
 H    -4.534653     0.035316     5.545794
 H    -5.099648     4.603070    -2.026779
 H     5.099648    -4.603070     2.026779
 H     3.745588     5.205330     2.853644
 H    -3.745588    -5.205330    -2.853644
 H     6.272548    -1.160351    -3.359141
 H    -6.272548     1.160351     3.359141
 H    -6.303038     1.865678    -2.453511
 H     6.303038    -1.865678     2.453511
 H     6.166682     3.879995     1.590797
 H    -6.166682    -3.879995    -1.590797
 H     5.603089     0.475114    -3.301957
 H    -5.603089    -0.475114     3.301957
 H    -5.647269     2.360061    -0.887095
 H     5.647269    -2.360061     0.887095
 H     5.249396     3.164484     2.919421
 H    -5.249396    -3.164484    -2.919421
 H     5.370460    -0.620551    -1.936124
 H    -5.370460     0.620551     1.936124
 H    -5.115767     0.849023    -1.632051
 H     5.115767    -0.849023     1.632051
 H     5.547367     2.228416     1.452497
 H    -5.547367    -2.228416    -1.452497
 H     4.642652    -3.201661    -3.730324
 H    -4.642652     3.201661     3.730324
 H    -4.729046     1.921216    -4.565145
 H     4.729046    -1.921216     4.565145
 H     4.973431     4.625144    -0.555607
 H    -4.973431    -4.625144     0.555607
 H     3.964972    -2.706530    -2.185048
 H    -3.964972     2.706530     2.185048
 H    -3.611577     0.879736    -3.685577
 H     3.611577    -0.879736     3.685577
 H     4.516476     2.937429    -0.757592
 H    -4.516476    -2.937429     0.757592
 H     2.904692    -2.908682    -3.587643
 H    -2.904692     2.908682     3.587643
 H    -3.044172     2.416423    -4.356838
 H     3.044172    -2.416423     4.356838
 H     3.276793     4.204745    -0.804707
 H    -3.276793    -4.204745     0.804707
