   66
 
Cl     2.864453     2.489233     0.630741
Cl     0.679302    -3.162804    -0.553879
 C     0.437340    -0.539677    -0.289659
 C    -1.014839    -0.225993     0.015566
 C    -0.462125     1.410556     0.112321
 C     0.922252     0.783756    -0.013829
 C     2.252920     1.002164     0.074213
 C     3.181881    -0.043395    -0.247460
 C     4.579795     0.181241    -0.274781
 C     5.449225    -0.836404    -0.591341
 C     4.959132    -2.123456    -0.895090
 C     3.606578    -2.370298    -0.874530
 C     2.691533    -1.340698    -0.549432
 C     1.279641    -1.574391    -0.496512
 C    -1.383466    -0.988292     1.277662
 C    -0.377009    -1.487218     2.119988
 C    -0.677953    -2.282880     3.221251
 C    -2.000962    -2.598323     3.519077
 C    -3.012309    -2.109890     2.699239
 C    -2.704724    -1.322939     1.590228
 C    -2.028704    -0.520915    -1.042072
 C    -1.769335    -1.447334    -2.057270
 C    -2.747864    -1.762564    -2.997428
 C    -3.995945    -1.146929    -2.948282
 C    -4.259852    -0.210884    -1.951185
 C    -3.285108     0.095492    -1.006407
 C    -0.784922     2.105638     1.462995
 C    -2.294689     2.072137     1.768825
 C    -0.364330     3.589743     1.532222
 C    -0.056020     1.436237     2.651948
 C    -0.669279     2.257673    -1.204607
 C    -0.641138     1.415132    -2.502678
 C    -1.977266     3.061379    -1.230938
 C     0.499509     3.257131    -1.401268
 H     4.974408     1.172752    -0.049218
 H     6.523528    -0.658870    -0.613428
 H     5.663631    -2.914511    -1.146847
 H     3.234283    -3.366962    -1.115846
 H     0.673129    -1.253324     1.940836
 H     0.127305    -2.661634     3.847821
 H    -2.238811    -3.220794     4.377146
 H    -4.051605    -2.349444     2.914666
 H    -3.536163    -0.993639     0.969579
 H    -0.794943    -1.918649    -2.143918
 H    -2.531437    -2.493189    -3.774449
 H    -4.757546    -1.394046    -3.682571
 H    -5.229145     0.280233    -1.908076
 H    -3.505280     0.827589    -0.228205
 H    -2.696432     1.056781     1.753810
 H    -2.875292     2.676535     1.068946
 H    -2.491763     2.469128     2.772096
 H    -0.839594     4.201597     0.759437
 H    -0.659038     4.027140     2.493900
 H     0.719001     3.710623     1.452741
 H     0.110399     2.147107     3.469633
 H     0.925385     1.041517     2.383799
 H    -0.647728     0.624364     3.086927
 H     0.056846     0.576339    -2.448186
 H    -1.629031     1.027694    -2.770806
 H    -0.330239     2.024423    -3.360149
 H    -2.854653     2.428782    -1.077023
 H    -2.110219     3.549597    -2.204482
 H    -1.994850     3.854961    -0.476343
 H     0.252720     3.984539    -2.183334
 H     0.746174     3.834754    -0.512857
 H     1.411312     2.744533    -1.726829
