   62
 
Br     1.726530     3.262237    -0.556863
Br     1.725384    -3.262656     0.557507
 C    -0.846571     0.810224    -0.238685
 C    -0.846931    -0.809807     0.238730
 C     0.667030    -0.695089     0.177963
 C     1.814816    -1.396324     0.276243
 C     3.062749    -0.701365     0.127813
 C     4.304640    -1.373230     0.242321
 C     5.494228    -0.695011     0.121304
 C     5.494487     0.693275    -0.120637
 C     4.305131     1.371955    -0.241413
 C     3.063005     0.700516    -0.126912
 C     1.815330     1.395927    -0.275440
 C     0.667324     0.695085    -0.177070
 C    -1.442112     0.963057    -1.598922
 C    -2.785003     0.616615    -1.797172
 C    -3.364486     0.731147    -3.055941
 C    -2.608269     1.192977    -4.132875
 C    -1.272307     1.533862    -3.942658
 C    -0.688807     1.416137    -2.681564
 C    -1.352750     1.788526     0.776106
 C    -0.723217     1.861880     2.026228
 C    -1.159015     2.765483     2.989006
 C    -2.228474     3.616348     2.714313
 C    -2.846596     3.564021     1.468457
 C    -2.407575     2.659994     0.502284
 C    -1.353053    -1.787833    -0.776350
 C    -0.722616    -1.861785    -2.025979
 C    -1.158484    -2.764997    -2.989095
 C    -2.228849    -3.614978    -2.715188
 C    -2.847930    -3.562009    -1.469821
 C    -2.408915    -2.658304    -0.503362
 C    -1.443174    -0.962732     1.598648
 C    -0.690580    -1.416872     2.681338
 C    -1.274739    -1.535085     3.942083
 C    -2.610558    -1.193471     4.131922
 C    -3.366027    -0.730484     3.054953
 C    -2.785906    -0.615509     1.796516
 H     4.325234    -2.447330     0.430893
 H     6.444017    -1.220263     0.211366
 H     6.444436     1.218144    -0.210869
 H     4.326093     2.446074    -0.429720
 H    -3.375578     0.237899    -0.963241
 H    -4.405404     0.451555    -3.201287
 H    -3.060185     1.280920    -5.117413
 H    -0.676551     1.890452    -4.780212
 H     0.361006     1.672224    -2.559945
 H     0.112587     1.200182     2.256786
 H    -0.664741     2.805224     3.957047
 H    -2.573458     4.319564     3.467919
 H    -3.673638     4.233441     1.242753
 H    -2.894092     2.658355    -0.472926
 H     0.113966    -1.200857    -2.255913
 H    -0.663611    -2.805072    -3.956815
 H    -2.573790    -4.317985    -3.468968
 H    -3.675753    -4.230681    -1.244758
 H    -2.896271    -2.656113     0.471402
 H     0.359173    -1.673342     2.560062
 H    -0.679606    -1.892700     4.779641
 H    -3.062982    -1.281711     5.116206
 H    -4.406819    -0.450402     3.200028
 H    -3.375816    -0.235793     0.962571
