   58
 
 I    -1.686446     3.536324    -0.000230
 I    -1.687356    -3.535884    -0.000168
 C     0.789728     0.829356     0.000182
 C     0.789501    -0.829615     0.000071
 C    -0.709459    -0.718518     0.000265
 C    -1.851617    -1.433621     0.000243
 C    -3.098969    -0.713918     0.000392
 C    -4.344765    -1.389191     0.000742
 C    -5.536122    -0.703008     0.000833
 C    -5.535959     0.704336     0.000544
 C    -4.344437     1.390238     0.000249
 C    -3.098795     0.714673     0.000240
 C    -1.851255     1.434069     0.000134
 C    -0.709273     0.718665     0.000278
 C     1.483776     1.452892     1.175974
 C     1.127559     1.478933     2.507555
 C     2.006300     2.079468     3.421357
 C     3.200829     2.648322     2.995164
 C     3.537335     2.680070     1.634685
 C     2.666282     2.103644     0.731469
 C     2.666238     2.103798    -0.730932
 C     3.537232     2.680446    -1.634064
 C     3.200648     2.648985    -2.994532
 C     2.006108     2.080201    -3.420779
 C     1.127415     1.479466    -2.507062
 C     1.483711     1.453136    -1.175506
 C     1.483622    -1.453528     1.175606
 C     1.127542    -1.479915     2.507221
 C     2.006285    -2.080868     3.420740
 C     3.200713    -2.649724     2.994257
 C     3.537088    -2.681084     1.633739
 C     2.665995    -2.104300     0.730783
 C     2.665735    -2.104146    -0.731620
 C     3.536492    -2.680723    -1.635025
 C     3.199595    -2.649084    -2.995417
 C     2.005000    -2.080173    -3.421326
 C     1.126588    -1.479416    -2.507346
 C     1.483185    -1.453287    -1.175871
 H    -4.377861    -2.478786     0.000976
 H    -6.484904    -1.238105     0.001132
 H    -6.484610     1.239654     0.000571
 H    -4.377286     2.479846     0.000013
 H     0.186264     1.054777     2.848427
 H     1.744606     2.095216     4.477181
 H     3.879919     3.089799     3.721480
 H     4.454945     3.156646     1.302383
 H     4.454842     3.156969    -1.301710
 H     3.879696     3.090640    -3.720790
 H     1.744362     2.096152    -4.476596
 H     0.186106     1.055392    -2.847972
 H     0.186365    -1.055681     2.848321
 H     1.744670    -2.096973     4.476587
 H     3.879820    -3.091504     3.720373
 H     4.454627    -3.157619     1.301198
 H     4.454166    -3.157308    -1.302949
 H     3.878447    -3.090706    -3.721875
 H     1.742971    -2.096064    -4.477074
 H     0.185269    -1.055154    -2.848004
