   66
 
 C    -0.001178     3.926870     2.058470
 C    -0.001019     4.564824     0.836995
 C    -0.000548     4.304964    -1.694044
 H    -0.001403     4.520891     2.985671
 H    -0.001130     5.662422     0.772874
 H    -0.000749     5.393057    -1.851605
 C    -0.000600     1.741369     1.035172
 C    -0.001014     2.511162     2.177104
 C    -0.000661     3.802259    -0.362306
 C    -0.000170     3.435457    -2.761255
 C     0.000057     2.021916    -2.593100
 C    -0.000059     1.509437    -1.320550
 C    -0.000409     2.406763    -0.218804
 C    -0.000179     0.220941     0.832849
 C    -1.263779    -0.331305     1.470006
 C    -2.266323     0.576755     1.873367
 C    -3.419867     0.171483     2.533295
 C    -3.634748    -1.180606     2.797429
 C    -2.695519    -2.101525     2.362005
 C    -1.520268    -1.696231     1.696237
 C    -0.667132    -2.778003     1.244546
 C     0.668330    -2.777641     1.244435
 C     1.520918    -1.695444     1.696204
 C     1.263695    -0.330621     1.470183
 C     0.000064     0.059300    -0.799887
 C    -1.317518    -0.508307    -1.287325
 C    -2.408195     0.393728    -1.203160
 C    -3.664201     0.104828    -1.711362
 C    -3.893364    -1.128530    -2.325123
 C    -2.863539    -2.050407    -2.370295
 C    -1.579611    -1.768288    -1.842872
 C    -0.666797    -2.889824    -1.886193
 C     0.667821    -2.889663    -1.885984
 C     1.580327    -1.767859    -1.842709
 C     1.317838    -0.508005    -1.287078
 H    -0.001230     2.052203     3.176420
 H    -0.000046     3.830225    -3.789192
 H     0.000350     1.372264    -3.479701
 H    -2.176797     1.653421     1.656564
 H    -4.165482     0.919761     2.839583
 H    -4.538367    -1.510343     3.329137
 H    -2.862176    -3.175984     2.536222
 H    -1.209325    -3.675672     0.892766
 H     1.210956    -3.674959     0.892466
 H    -2.268255     1.366505    -0.701214
 H    -4.475426     0.842579    -1.629177
 H    -4.878018    -1.365222    -2.752258
 H    -3.041113    -3.036461    -2.828252
 H    -1.175354    -3.874377    -1.937501
 H     1.176678    -3.874081    -1.936946
 H     2.268071     1.366845    -0.700347
 C     2.696400    -2.100225     2.361900
 C     3.635081    -1.178855     2.797573
 C     3.419420     0.173166     2.533729
 C     2.265697     0.577919     1.873790
 C     2.864327    -2.049551    -2.370173
 C     3.893917    -1.127403    -2.324780
 C     3.664445     0.105728    -1.710682
 C     2.408321     0.394246    -1.202549
 H     2.863683    -3.174627     2.535840
 H     4.538879    -1.508175     3.329236
 H     4.164568     0.921814     2.840262
 H     2.175610     1.654584     1.657231
 H     3.042165    -3.035467    -2.828310
 H     4.878624    -1.363734    -2.752006
 H     4.475526     0.843590    -1.628105
