   66
 
 N     1.545506    -0.284364     0.873760
 C     2.811590    -0.710606     0.394424
 C     0.963110     0.910267     0.621967
 C     2.882933    -1.704007    -0.613860
 C     4.128647    -2.155550    -1.052184
 H     4.178675    -2.924426    -1.839044
 C     4.008446    -0.202303     0.953260
 C     5.238524    -0.671474     0.483696
 H     6.167820    -0.265093     0.913501
 C     5.312124    -1.643317    -0.515344
 C     1.656396    -2.272564    -1.222808
 H     0.981034    -2.698042    -0.438453
 H     1.905720    -3.090008    -1.943939
 H     1.099741    -1.475708    -1.779359
 B     0.349129     1.336595    -1.294403
 H     0.841007     0.704541    -2.057764
 B     0.960324     2.556876     1.461635
 H     1.597663     2.464956     2.351642
 C     6.626310    -2.136023    -0.988493
 H     6.958833    -2.998987    -0.357590
 H     7.401766    -1.333675    -0.920356
 H     6.566531    -2.480995    -2.050053
 C     3.995051     0.818181     2.028166
 H     3.621966     1.795195     1.624890
 H     5.020481     0.979642     2.443268
 H     3.324270     0.506117     2.867017
 B     1.543763     2.076234    -0.166340
 H     2.617164     2.093903    -0.445619
 B     0.579048     2.938968    -1.262609
 H     1.106615     3.497844    -2.055507
 B     0.776659     3.549344     0.280663
 H     1.298001     4.517502     0.393907
 H     1.002553    -0.983731     1.335142
 N    -1.545422    -0.284508    -0.873744
 C    -2.811520    -0.710747    -0.394417
 C    -0.963038     0.910160    -0.621887
 C    -2.882971    -1.704266     0.613780
 C    -4.128726    -2.155676     1.052126
 H    -4.178828    -2.924594     1.838939
 C    -4.008343    -0.202307    -0.953213
 C    -5.238463    -0.671356    -0.483619
 H    -6.167722    -0.264851    -0.913386
 C    -5.312159    -1.643236     0.515380
 C    -1.656475    -2.273058     1.222614
 H    -0.981593    -2.699248     0.438222
 H    -1.905909    -3.090023     1.944246
 H    -1.099263    -1.476194     1.778583
 B    -0.349132     1.336626     1.294389
 H    -0.840945     0.704578     2.057804
 B    -0.960399     2.556724    -1.461665
 H    -1.597749     2.464725    -2.351655
 C    -6.626397    -2.135756     0.988588
 H    -6.959168    -2.998550     0.357583
 H    -7.401696    -1.333238     0.920662
 H    -6.566580    -2.480911     2.050086
 C    -3.994884     0.818129    -2.028169
 H    -3.621878     1.795186    -1.624926
 H    -5.020284     0.979526    -2.443375
 H    -3.324011     0.506042    -2.866939
 B    -1.543792     2.076136     0.166353
 H    -2.617190     2.093737     0.445650
 B    -0.579128     2.939013     1.262584
 H    -1.106759     3.497880     2.055444
 B    -0.776803     3.549253    -0.280736
 H    -1.298172     4.517393    -0.394029
 H    -1.001967    -0.984181    -1.334096
