   28
 
 B     0.863800     0.807039    -1.372521
 H     1.183244     1.272871    -2.321980
 B     1.551537    -0.580592     0.799558
 H     2.177348    -1.237108     1.424951
 B     1.552476    -0.580311    -0.799105
 H     2.177990    -1.237319    -1.424236
 B    -0.131568    -0.463096     1.275094
 H    -0.709950    -0.887214     2.114483
 B    -0.130905    -0.463309    -1.275268
 H    -0.708709    -0.887505    -2.114995
 B     0.559810     1.829793    -0.000051
 H     0.773054     2.913975     0.000044
 B    -0.678430     1.240032    -0.959831
 H    -1.158037     1.921405    -1.696907
 B    -0.678952     1.240046     0.959805
 H    -1.158506     1.921987     1.696326
 B     1.854921     0.879634     0.000314
 H     2.890296     1.256282     0.000530
 B     0.863277     0.807187     1.372605
 H     1.182479     1.272775     2.322268
 C    -1.581017     0.532224    -0.000269
 C     0.181157    -1.281288     0.000043
 N    -2.780832    -0.000748    -0.000364
 N    -0.129353    -2.662877    -0.000080
 H     0.225413    -3.118732    -0.818808
 H     0.222039    -3.118094     0.820447
 H    -3.228396    -0.257062     0.852130
 H    -3.227630    -0.258622    -0.852793
