   54
 
 B    -0.499053     2.070717    -1.362809
 B    -2.013049     3.014202    -1.116640
 B    -2.047369     2.413678     0.572166
 B    -0.496624     1.915579     1.337253
 B    -0.568783     3.682916    -1.289341
 B    -1.714176     4.012709     0.033773
 B    -1.017715     3.441279     1.444435
 C    -1.483896     1.390800    -0.407740
 N    -1.883085     0.111405    -0.548148
 H    -0.106600     1.551846    -2.257272
 H    -1.422655     3.885098     2.370864
 H    -2.833786     2.807854    -1.815739
 H    -0.655748     1.194761     2.160976
 H    -0.372241     4.343610    -2.151946
 H    -3.000244     2.216831     1.105488
 H    -2.417642     4.861831     0.112080
 C    -2.901655    -0.490297     0.279942
 B     0.781053     3.008621    -0.514653
 B     0.566739     3.364237     1.228628
 B    -0.097984     4.307968     0.190357
 C     0.648118     1.749619     0.334991
 N     1.481138     0.690256     0.332079
 C     2.658769     0.624689    -0.501969
 H     2.334860     0.654242    -1.585717
 H     3.293485     1.541597    -0.317304
 C     3.470060    -0.614821    -0.268657
 C     4.804975    -0.508990     0.133706
 H     5.252733     0.481982     0.304215
 C     5.571893    -1.659333     0.316630
 H     6.623009    -1.571951     0.629437
 C     5.008424    -2.917689     0.106091
 H     5.614436    -3.823968     0.252590
 C     3.675484    -3.025926    -0.291580
 H     3.229740    -4.017479    -0.459362
 C     2.907373    -1.878099    -0.480020
 H     1.859345    -1.965505    -0.803338
 H     1.728645     3.229925    -1.047878
 H     1.420601     3.394660     1.917854
 H     0.247756     5.357468     0.221741
 H     1.327325    -0.050926     0.978726
 C    -2.920855    -1.987062     0.182028
 C    -3.194147    -2.608876    -1.041145
 C    -3.240478    -3.999615    -1.123022
 C    -3.016912    -4.774761     0.015371
 C    -2.745879    -4.156924     1.236057
 C    -2.693937    -2.765785     1.320686
 H    -1.461951    -0.454779    -1.250239
 H    -3.912542    -0.092701    -0.036392
 H    -2.734339    -0.172162     1.351567
 H    -3.384072    -1.999026    -1.937334
 H    -3.457674    -4.485239    -2.085929
 H    -3.056939    -5.872157    -0.049571
 H    -2.572338    -4.766550     2.135253
 H    -2.478740    -2.282001     2.285663
