   58
FINAL HEAT OF FORMATION = ************
 I    -1.675892    -0.395774     5.162586
 I     1.095201    -3.924128    -0.374663
 C     0.936956    -3.102005     4.559673
 C     1.130804    -4.134890     3.308892
 C     0.634048    -2.971294     2.463393
 C     0.324329    -2.675760     1.181893
 C    -0.608822    -1.613344     0.952184
 C    -1.047913    -1.276356    -0.352452
 C    -2.053186    -0.362603    -0.562574
 C    -2.663448     0.275250     0.536328
 C    -2.250267    -0.004802     1.819671
 C    -1.224460    -0.945404     2.087457
 C    -0.820112    -1.292546     3.422948
 C     0.111925    -2.261578     3.571839
 C     0.498488    -3.538648     5.933964
 C    -0.593272    -4.311571     6.303642
 C    -0.797523    -4.576371     7.662129
 C     0.080644    -4.073305     8.625906
 C     1.188219    -3.303981     8.254111
 C     1.399059    -3.040779     6.904913
 C     2.445736    -2.255500     6.222475
 C     3.504585    -1.499406     6.717004
 C     4.293305    -0.777046     5.816169
 C     4.016023    -0.792049     4.444475
 C     2.943920    -1.539231     3.947874
 C     2.189646    -2.283707     4.840513
 C     0.039540    -5.206832     3.241967
 C    -1.341055    -5.064009     3.157143
 C    -2.138141    -6.213295     3.082933
 C    -1.557490    -7.485499     3.067673
 C    -0.168704    -7.628720     3.094789
 C     0.623179    -6.484206     3.170509
 C     2.078917    -6.324965     3.084093
 C     3.065692    -7.289387     2.923788
 C     4.389724    -6.870674     2.771539
 C     4.704504    -5.509595     2.775488
 C     3.707966    -4.539803     2.943189
 C     2.393282    -4.946611     3.104335
 H    -0.592396    -1.785519    -1.191717
 H    -2.383826    -0.143433    -1.570584
 H    -3.465674     0.983396     0.369297
 H    -2.726084     0.485475     2.657600
 H    -1.262908    -4.711735     5.555915
 H    -1.646409    -5.176410     7.966827
 H    -0.098169    -4.283299     9.673433
 H     1.866158    -2.918224     9.005059
 H     3.702414    -1.455001     7.780611
 H     5.116525    -0.178517     6.186256
 H     4.619768    -0.203011     3.764975
 H     2.686530    -1.524885     2.894910
 H    -1.796131    -4.082033     3.133617
 H    -3.215271    -6.114886     3.021030
 H    -2.188537    -8.364396     3.008168
 H     0.282012    -8.612685     3.039321
 H     2.809979    -8.342452     2.907771
 H     5.176043    -7.604726     2.643713
 H     5.733329    -5.196516     2.648145
 H     3.963939    -3.492617     2.961653
