   68
 
 C     1.541869     0.000763     1.123550  0.084044
 C     2.419413     0.000885     2.223125 -0.235563
 C     3.848186     0.001139     2.063643 -0.236346
 C     4.427695     0.001455     0.788411  0.172913
 C     3.521732     0.001596    -0.296242 -0.069667
 C     4.169188     0.001157    -1.552730  0.173831
 C     3.332800     0.000470    -2.677283 -0.238454
 C     1.903223     0.000205    -2.530525 -0.197879
 C     1.301465     0.000489    -1.268330  0.069939
 C     2.149064     0.001109    -0.146022  0.091032
 C     5.758486     0.001074     0.154365 -0.210850
 C     5.605778     0.000904    -1.220735 -0.207478
 C     0.007299     0.000225     0.994364 -0.181552
 C    -0.598185     1.274023     1.619223  0.104313
 C     0.230951     2.244130     2.225887 -0.194482
 C    -0.258152     3.456370     2.725043 -0.141197
 C    -1.619515     3.762708     2.606290 -0.134855
 C    -2.462825     2.827337     2.010936 -0.188533
 C    -1.993447     1.574243     1.543721  0.149208
 C    -3.010696     0.678246     1.017988 -0.206973
 C    -3.010350    -0.679343     1.018183 -0.207023
 C    -1.992624    -1.574718     1.544034  0.149162
 C    -2.461345    -2.828010     2.011381 -0.188523
 C    -1.617557    -3.762910     2.606786 -0.134883
 C    -0.256347    -3.455868     2.725471 -0.141260
 C     0.232128    -2.243435     2.226184 -0.194513
 C    -0.597497    -1.273780     1.619460  0.104373
 C    -0.175141    -0.000071    -0.840106 -0.165203
 C    -0.747786     1.354260    -1.308373  0.106561
 C     0.092327     2.467285    -1.056361 -0.173630
 C    -0.249378     3.785414    -1.368482 -0.132942
 C    -1.479395     4.052179    -1.981136 -0.134962
 C    -2.323614     2.981482    -2.256705 -0.208510
 C    -1.997607     1.632298    -1.941464  0.138568
 C    -3.018942     0.676409    -2.333782 -0.215210
 C    -3.018396    -0.679266    -2.333620 -0.215266
 C    -1.996300    -1.634215    -1.941000  0.138567
 C    -2.321223    -2.983757    -2.255786 -0.208458
 C    -1.476118    -4.053678    -1.979927 -0.134950
 C    -0.246282    -3.785717    -1.367427 -0.132988
 C     0.094352    -2.467215    -1.055728 -0.173671
 C    -0.746688    -1.354945    -1.308044  0.106539
 H     2.021615     0.000707     3.243864  0.154654
 H     4.463262     0.001003     2.971118  0.142903
 H     3.744922     0.000044    -3.693130  0.143103
 H     1.285766    -0.000358    -3.434753  0.145912
 H     6.714455     0.000940     0.682705  0.137703
 H     1.305854     2.068535     2.283191  0.147379
 H     0.436721     4.170201     3.179794  0.134432
 H    -2.016731     4.716159     2.969245  0.135143
 H    -3.533047     3.042171     1.913537  0.133920
 H    -3.928454     1.171710     0.674930  0.138735
 H    -3.927879    -1.173339     0.675279  0.138709
 H    -3.531468    -3.043371     1.914043  0.133912
 H    -2.014266    -4.716554     2.969793  0.135112
 H     0.438893    -4.169308     3.180273  0.134409
 H     1.306944    -2.067319     2.283415  0.147396
 H     1.060130     2.298292    -0.580750  0.151072
 H     0.446900     4.594825    -1.127393  0.137554
 H    -1.774280     5.074123    -2.240160  0.135331
 H    -3.286788     3.167955    -2.745334  0.133628
 H    -3.929514     1.146016    -2.727838  0.129773
 H    -3.928607    -1.149705    -2.727509  0.129760
 H    -3.284263    -3.171169    -2.744315  0.133641
 H    -1.770205    -5.075946    -2.238593  0.135318
 H     0.450676    -4.594482    -1.126152  0.137536
 H     1.062035    -2.297272    -0.580190  0.151057
 H     6.424053     0.000587    -1.944492  0.138576
