  212
 
 C     0.849210    -0.004872     0.012656 -0.124599
 C    -0.849210     0.004872    -0.012656 -0.124599
 C     1.487002     0.320065    -1.396315  0.073655
 C    -1.487002    -0.320065     1.396315  0.073655
 C    -1.450880     1.401500    -0.439053  0.059272
 C     1.450880    -1.401500     0.439053  0.059272
 C     1.439631     1.058845     1.017813  0.067867
 C    -1.439631    -1.058845    -1.017813  0.067867
 C     1.061084     1.103243     2.380099 -0.251797
 C    -1.061084    -1.103243    -2.380099 -0.251797
 C    -1.086497    -1.435009     2.177346 -0.270813
 C     1.086497     1.435009    -2.177346 -0.270813
 C     1.074185    -2.612804    -0.185934 -0.248400
 C    -1.074185     2.612804     0.185934 -0.248400
 C     2.496247     1.907770     0.627844 -0.240353
 C    -2.496247    -1.907770    -0.627844 -0.240353
 C    -2.608013     0.399245     1.851159 -0.236893
 C     2.608013    -0.399245    -1.851159 -0.236893
 C     2.538293    -1.465718     1.336091 -0.243733
 C    -2.538293     1.465718    -1.336091 -0.243733
 C     1.651845     1.988962     3.303495  0.199034
 C    -1.651845    -1.988962    -3.303495  0.199034
 C    -1.743302    -1.796028     3.366938  0.204925
 C     1.743302     1.796028    -3.366938  0.204925
 C     1.715961    -3.838464     0.084081  0.203508
 C    -1.715961     3.838464    -0.084081  0.203508
 C     3.142805     2.784716     1.523499  0.199920
 C    -3.142805    -2.784716    -1.523499  0.199920
 C    -3.319954     0.053347     3.021973  0.198454
 C     3.319954    -0.053347    -3.021973  0.198454
 C     3.228400    -2.663619     1.616646  0.203033
 C    -3.228400     2.663619    -1.616646  0.203033
 C     2.690026     2.828231     2.852708 -0.281711
 C    -2.690026    -2.828231    -2.852708 -0.281711
 C    -2.867330    -1.041412     3.768250 -0.278974
 C     2.867330     1.041412    -3.768250 -0.278974
 C     2.796252    -3.842303     0.986923 -0.281750
 C    -2.796252     3.842303    -0.986923 -0.281750
 H     0.292477     0.419438     2.736712  0.159776
 H    -0.292477    -0.419438    -2.736712  0.159776
 H    -0.245507    -2.037113     1.841865  0.164664
 H     0.245507     2.037113    -1.841865  0.164664
 H     0.265514    -2.602096    -0.914971  0.163288
 H    -0.265514     2.602096     0.914971  0.163288
 H     2.852150     1.873045    -0.402108  0.156176
 H    -2.852150    -1.873045     0.402108  0.156176
 H    -2.969146     1.246508     1.268174  0.155771
 H     2.969146    -1.246508    -1.268174  0.155771
 H     2.885357    -0.548753     1.813874  0.154999
 H    -2.885357     0.548753    -1.813874  0.154999
 C     1.213939     1.964556     4.785509 -0.004482
 C    -1.213939    -1.964556    -4.785509 -0.004482
 C    -1.307695    -3.000292     4.229001  0.000353
 C     1.307695     3.000292    -4.229001  0.000353
 C     1.233280    -5.128741    -0.614644 -0.006872
 C    -1.233280     5.128741     0.614644 -0.006872
 C     4.355501     3.605681     1.035753 -0.003440
 C    -4.355501    -3.605681    -1.035753 -0.003440
 C    -4.574657     0.861930     3.409721 -0.004149
 C     4.574657    -0.861930    -3.409721 -0.004149
 C     4.441197    -2.635569     2.570511 -0.003714
 C    -4.441197     2.635569    -2.570511 -0.003714
 H     3.165845     3.512612     3.556766  0.124793
 H    -3.165845    -3.512612    -3.556766  0.124793
 H    -3.398013    -1.328210     4.680183  0.124960
 H     3.398013     1.328210    -4.680183  0.124960
 H     3.314823    -4.779516     1.194358  0.125056
 H    -3.314823     4.779516    -1.194358  0.125056
 C     5.191308    -0.388709    -4.741165 -0.495484
 C    -5.191308     0.388709     4.741165 -0.495484
 C    -5.065427     4.030876    -2.772352 -0.494970
 C     5.065427    -4.030876     2.772352 -0.494970
 C     4.897143     4.558083     2.120694 -0.494728
 C    -4.897143    -4.558083    -2.120694 -0.494728
 C     5.640634    -0.698221    -2.297621 -0.491619
 C    -5.640634     0.698221     2.297621 -0.491619
 C    -5.529776     1.702235    -1.984345 -0.490621
 C     5.529776    -1.702235     1.984345 -0.490621
 C     5.487576     2.621327     0.644825 -0.488631
 C    -5.487576    -2.621327    -0.644825 -0.488631
 C     4.216799    -2.360778    -3.553281 -0.495114
 C    -4.216799     2.360778     3.553281 -0.495114
 C    -4.007292     2.099887    -3.955360 -0.494120
 C     4.007292    -2.099887     3.955360 -0.494120
 C     3.979673     4.456637    -0.200374 -0.500573
 C    -3.979673    -4.456637     0.200374 -0.500573
 C     1.074632     2.543177    -5.690442 -0.490786
 C    -1.074632    -2.543177     5.690442 -0.490786
 C    -2.095732     6.354414     0.251782 -0.494503
 C     2.095732    -6.354414    -0.251782 -0.494503
 C     1.811369     3.135463     5.593612 -0.494852
 C    -1.811369    -3.135463    -5.593612 -0.494852
 C     0.007666     3.651722    -3.722231 -0.523507
 C    -0.007666    -3.651722     3.722231 -0.523507
 C     0.226664     5.423903     0.194178 -0.496526
 C    -0.226664    -5.423903    -0.194178 -0.496526
 C    -0.326070     2.042576     4.909672 -0.505737
 C     0.326070    -2.042576    -4.909672 -0.505737
 C     2.427981     4.069895    -4.211416 -0.485066
 C    -2.427981    -4.069895     4.211416 -0.485066
 C    -1.282416     4.948323     2.150392 -0.500087
 C     1.282416    -4.948323    -2.150392 -0.500087
 C     1.701752     0.640472     5.422310 -0.490387
 C    -1.701752    -0.640472    -5.422310 -0.490387
 H     0.768849     3.404262    -6.312259  0.150263
 H    -0.768849    -3.404262     6.312259  0.150263
 H    -1.713271     7.244083     0.782570  0.152638
 H     1.713271    -7.244083    -0.782570  0.152638
 H     1.430479     3.100705     6.629591  0.153084
 H    -1.430479    -3.100705    -6.629591  0.153084
 H     1.984177     2.112630    -6.143032  0.154752
 H    -1.984177    -2.112630     6.143032  0.154752
 H    -3.151249     6.218605     0.547706  0.157244
 H     3.151249    -6.218605    -0.547706  0.157244
 H     2.913177     3.086271     5.649080  0.156459
 H    -2.913177    -3.086271    -5.649080  0.156459
 H     0.277795     1.781453    -5.747389  0.168628
 H    -0.277795    -1.781453     5.747389  0.168628
 H    -2.065569     6.576395    -0.829711  0.157874
 H     2.065569    -6.576395     0.829711  0.157874
 H     1.529844     4.113764     5.164940  0.159345
 H    -1.529844    -4.113764    -5.164940  0.159345
 H     2.145941     4.932000    -4.843406  0.150372
 H    -2.145941    -4.932000     4.843406  0.150372
 H    -0.939555     5.871464     2.652999  0.147184
 H     0.939555    -5.871464    -2.652999  0.147184
 H     1.384323     0.579131     6.479842  0.150195
 H    -1.384323    -0.579131    -6.479842  0.150195
 H     2.604242     4.441298    -3.186483  0.169060
 H    -2.604242    -4.441298     3.186483  0.169060
 H    -0.630976     4.123888     2.484102  0.180320
 H     0.630976    -4.123888    -2.484102  0.180320
 H     1.290857    -0.235025     4.890736  0.177851
 H    -1.290857     0.235025    -4.890736  0.177851
 H     3.382608     3.669187    -4.594349  0.153711
 H    -3.382608    -3.669187     4.594349  0.153711
 H    -2.309658     4.733613     2.493977  0.163387
 H     2.309658    -4.733613    -2.493977  0.163387
 H     2.803402     0.568234     5.392227  0.160294
 H    -2.803402    -0.568234    -5.392227  0.160294
 H    -0.270698     4.489845    -4.385991  0.146214
 H     0.270698    -4.489845     4.385991  0.146214
 H     0.600568     6.325205     0.714912  0.146107
 H    -0.600568    -6.325205    -0.714912  0.146107
 H    -0.618206     1.998547     5.975080  0.145317
 H     0.618206    -1.998547    -5.975080  0.145317
 H    -0.834137     2.937803    -3.708678  0.176369
 H     0.834137    -2.937803     3.708678  0.176369
 H     0.297054     5.607248    -0.892740  0.161514
 H    -0.297054    -5.607248     0.892740  0.161514
 H    -0.710804     2.989133     4.492199  0.168125
 H     0.710804    -2.989133    -4.492199  0.168125
 H     0.117625     4.057869    -2.702680  0.177783
 H    -0.117625    -4.057869     2.702680  0.177783
 H     0.897036     4.584495     0.443538  0.181470
 H    -0.897036    -4.584495    -0.443538  0.181470
 H    -0.835182     1.213491     4.391754  0.184554
 H     0.835182    -1.213491    -4.391754  0.184554
 H     6.075268    -1.005899    -4.980040  0.153430
 H    -6.075268     1.005899     4.980040  0.153430
 H    -5.923785     3.955473    -3.463029  0.152869
 H     5.923785    -3.955473     3.463029  0.152869
 H     5.751135     5.130711     1.717916  0.153256
 H    -5.751135    -5.130711    -1.717916  0.153256
 H     4.479667    -0.485779    -5.580322  0.158643
 H    -4.479667     0.485779     5.580322  0.158643
 H    -4.345660     4.743642    -3.212511  0.158836
 H     4.345660    -4.743642     3.212511  0.158836
 H     4.131892     5.284412     2.447524  0.158874
 H    -4.131892    -5.284412    -2.447524  0.158874
 H     5.526396     0.662531    -4.691344  0.157154
 H    -5.526396    -0.662531     4.691344  0.157154
 H    -5.439355     4.457853    -1.824865  0.157915
 H     5.439355    -4.457853     1.824865  0.157915
 H     5.257281     4.011544     3.010229  0.157313
 H    -5.257281    -4.011544    -3.010229  0.157313
 H     6.551585    -1.272089    -2.549201  0.149413
 H    -6.551585     1.272089     2.549201  0.149413
 H    -6.404440     1.660041    -2.659314  0.149208
 H     6.404440    -1.660041     2.659314  0.149208
 H     6.378175     3.176148     0.296113  0.149233
 H    -6.378175    -3.176148    -0.296113  0.149233
 H     5.926944     0.362042    -2.177890  0.161422
 H    -5.926944    -0.362042     2.177890  0.161422
 H    -5.875632     2.068231    -1.001241  0.162017
 H     5.875632    -2.068231     1.001241  0.162017
 H     5.787547     2.001326     1.508483  0.160266
 H    -5.787547    -2.001326    -1.508483  0.160266
 H     5.270748    -1.059782    -1.322892  0.172672
 H    -5.270748     1.059782     1.322892  0.172672
 H    -5.157508     0.672168    -1.849019  0.170471
 H     5.157508    -0.672168     1.849019  0.170471
 H     5.171998     1.941455    -0.165424  0.171813
 H    -5.171998    -1.941455     0.165424  0.171813
 H     5.117601    -2.943751    -3.819175  0.148272
 H    -5.117601     2.943751     3.819175  0.148272
 H    -4.873921     2.061905    -4.640792  0.148150
 H     4.873921    -2.061905     4.640792  0.148150
 H     4.867055     5.003158    -0.568646  0.149021
 H    -4.867055    -5.003158     0.568646  0.149021
 H     3.810762    -2.778322    -2.616511  0.173234
 H    -3.810762     2.778322     2.616511  0.173234
 H    -3.586950     1.082988    -3.887459  0.173758
 H     3.586950    -1.082988     3.887459  0.173758
 H     3.601391     3.836699    -1.030828  0.174601
 H    -3.601391    -3.836699     1.030828  0.174601
 H     3.462818    -2.513476    -4.345473  0.166557
 H    -3.462818     2.513476     4.345473  0.166557
 H    -3.240956     2.752463    -4.410262  0.162558
 H     3.240956    -2.752463     4.410262  0.162558
 H     3.202063     5.199178     0.050184  0.168384
 H    -3.202063    -5.199178    -0.050184  0.168384
