   66
 
Cl     2.947384     2.538787     0.604297  0.024922
Cl     0.700590    -3.256543    -0.669991  0.036243
 C     0.442784    -0.538642    -0.327169  0.100503
 C    -1.017568    -0.228806     0.019469 -0.186959
 C    -0.459103     1.423683     0.063564  0.009481
 C     0.929669     0.763246    -0.034220  0.156869
 C     2.289337     0.999200     0.059686 -0.285640
 C     3.216900    -0.057891    -0.250356  0.159724
 C     4.627293     0.139693    -0.246490 -0.213027
 C     5.503505    -0.889482    -0.549733 -0.138028
 C     5.007608    -2.176374    -0.866250 -0.139315
 C     3.642670    -2.411028    -0.873406 -0.208911
 C     2.710333    -1.377760    -0.574089  0.157368
 C     1.291344    -1.605548    -0.548403 -0.279756
 C    -1.336406    -0.982061     1.361008  0.162643
 C    -0.298302    -1.459001     2.197304 -0.192872
 C    -0.558903    -2.192258     3.361901 -0.135637
 C    -1.875417    -2.486474     3.738394 -0.132169
 C    -2.919932    -2.040308     2.921321 -0.143768
 C    -2.652988    -1.313825     1.751606 -0.182365
 C    -2.122341    -0.578083    -0.983915  0.117207
 C    -1.933539    -1.550303    -1.985838 -0.158463
 C    -2.965012    -1.902344    -2.867260 -0.144385
 C    -4.222691    -1.291984    -2.771113 -0.133925
 C    -4.432649    -0.324923    -1.779035 -0.144264
 C    -3.397604     0.022462    -0.898523 -0.194199
 C    -0.804428     2.260096     1.394681  0.064683
 C    -2.319889     2.214535     1.711737 -0.504835
 C    -0.407737     3.763891     1.371362 -0.509577
 C    -0.061781     1.706072     2.640314 -0.512313
 C    -0.667124     2.229967    -1.353991  0.083705
 C    -0.573078     1.337592    -2.626458 -0.510527
 C    -2.007065     2.994926    -1.486196 -0.507047
 C     0.489244     3.251163    -1.568024 -0.501591
 H     5.013922     1.132279    -0.004584  0.162330
 H     6.582076    -0.702907    -0.545071  0.145277
 H     5.700866    -2.988282    -1.107594  0.145317
 H     3.257577    -3.404252    -1.116256  0.161882
 H     0.743650    -1.244291     1.951233  0.153343
 H     0.281619    -2.536842     3.973464  0.139783
 H    -2.081791    -3.063673     4.645506  0.137337
 H    -3.959563    -2.268658     3.179316  0.138083
 H    -3.499951    -1.029786     1.125264  0.151420
 H    -0.958589    -2.024287    -2.102465  0.146219
 H    -2.776435    -2.657171    -3.638060  0.139527
 H    -5.028139    -1.564283    -3.460820  0.137543
 H    -5.406272     0.168002    -1.685581  0.138425
 H    -3.588018     0.778640    -0.133078  0.151005
 H    -2.674392     1.187698     1.885440  0.175466
 H    -2.934659     2.677713     0.924511  0.161002
 H    -2.505615     2.779279     2.643269  0.151923
 H    -0.895270     4.352072     0.581746  0.162429
 H    -0.724188     4.202657     2.334792  0.149570
 H     0.681376     3.905238     1.298069  0.178703
 H    -0.244152     2.388562     3.489808  0.146624
 H     1.028637     1.663732     2.485609  0.164047
 H    -0.410201     0.712851     2.944680  0.185200
 H     0.257288     0.614161    -2.585097  0.161807
 H    -1.499185     0.793591    -2.845898  0.182992
 H    -0.377925     2.001806    -3.487304  0.150102
 H    -2.876945     2.325786    -1.427949  0.166446
 H    -2.033237     3.465349    -2.486094  0.152680
 H    -2.135049     3.802791    -0.751294  0.161787
 H     0.239328     3.865207    -2.451680  0.151006
 H     0.668841     3.936957    -0.734369  0.169505
 H     1.436071     2.735332    -1.793972  0.167354
