   58
 
 I     3.563081     1.712837    -0.112685 28.046159
 I    -3.560791     1.717441     0.112714 28.046132
 C     0.874240    -0.833342     0.030422 -0.201115
 C    -0.875257    -0.832216    -0.030386 -0.201087
 C    -0.707023     0.671700     0.023905  0.165776
 C    -1.436620     1.837086     0.051651 -0.315007
 C    -0.729074     3.089939     0.029010  0.135104
 C    -1.397291     4.346320     0.056199 -0.216282
 C    -0.703133     5.544610     0.028478 -0.142028
 C     0.710395     5.543692    -0.028436 -0.142027
 C     1.402994     4.344500    -0.056163 -0.216287
 C     0.733145     3.088989    -0.028974  0.135102
 C     1.439064     1.835214    -0.051619 -0.314958
 C     0.707942     0.670779    -0.023887  0.165724
 C     1.454920    -1.430164     1.298205  0.140404
 C     1.417930    -0.956495     2.611435 -0.206698
 C     2.028900    -1.713768     3.628016 -0.139631
 C     2.669894    -2.926656     3.328146 -0.144112
 C     2.751780    -3.382830     2.002500 -0.188291
 C     2.160298    -2.620491     0.986780  0.074334
 C     2.233700    -2.742777    -0.474707  0.067714
 C     2.909545    -3.669269    -1.279017 -0.189758
 C     2.964514    -3.451541    -2.664927 -0.144025
 C     2.372359    -2.311387    -3.231070 -0.141596
 C     1.676694    -1.389437    -2.427619 -0.184275
 C     1.579971    -1.622013    -1.053104  0.127246
 C    -1.582081    -1.619951     1.053098  0.127188
 C    -1.678459    -1.387314     2.427629 -0.184307
 C    -2.375421    -2.308317     3.231041 -0.141591
 C    -2.969207    -3.447596     2.664846 -0.144017
 C    -2.914545    -3.665340     1.278926 -0.189721
 C    -2.237388    -2.739771     0.474659  0.067768
 C    -2.163788    -2.617547    -0.986825  0.074332
 C    -2.756369    -3.379015    -2.002561 -0.188289
 C    -2.673827    -2.922930    -3.328194 -0.144108
 C    -2.031088    -1.710954    -3.628027 -0.139607
 C    -1.419051    -0.954574    -2.611428 -0.206677
 C    -1.456719    -1.428219    -1.298207  0.140405
 H    -2.490631     4.346865     0.099520  0.188563
 H    -1.251810     6.491380     0.050772  0.148562
 H     1.260302     6.489749    -0.050727  0.148564
 H     2.496334     4.343622    -0.099494  0.188560
 H     0.948799     0.004075     2.847576  0.150963
 H     2.010344    -1.348241     4.659724  0.138075
 H     3.135386    -3.507602     4.131069  0.138279
 H     3.297173    -4.302917     1.766315  0.137749
 H     3.412074    -4.534586    -0.833495  0.137178
 H     3.495743    -4.163090    -3.305568  0.137996
 H     2.455805    -2.132307    -4.307763  0.137965
 H     1.242516    -0.493775    -2.878252  0.140795
 H    -1.242993    -0.492304     2.878309  0.140770
 H    -2.458600    -2.129170     4.307744  0.137976
 H    -3.501443    -4.158420     3.305456  0.137998
 H    -3.418300    -4.529922     0.833361  0.137160
 H    -3.303082    -4.298320    -1.766385  0.137730
 H    -3.140134    -3.503183    -4.131144  0.138272
 H    -2.012002    -1.345427    -4.659727  0.138064
 H    -0.948556     0.005330    -2.847554  0.150953
