   23
 
 C    -3.087682     1.190241     0.000006  0.084085
 C    -4.480028     1.204725     0.000003 -0.165921
 C    -5.180909    -0.009547    -0.000005 -0.068031
 C    -4.461307    -1.215764     0.000001 -0.169706
 C    -3.072127    -1.180732     0.000008  0.090593
 N    -2.408776     0.010594     0.000008 -0.368253
 C    -0.926994     0.005746     0.000006  0.145604
 C    -0.022697     1.261287     0.000062 -0.351855
 C    -0.022656    -0.630717     1.093100 -0.321265
 C    -0.022680    -0.630601    -1.093181 -0.321324
 C     0.898548    -0.002453    -0.000020 -0.068700
 I     3.025890    -0.000057     0.000001 28.105569
 H    -2.476218     2.094273     0.000008  0.243499
 H    -5.000502     2.165364     0.000008  0.231583
 H    -6.274480    -0.018030    -0.000007  0.231036
 H    -4.968759    -2.183362    -0.000001  0.231620
 H    -2.447505    -2.076163     0.000024  0.233291
 H    -0.003917     1.867773     0.919389  0.208137
 H    -0.003938     1.867874    -0.919202  0.208147
 H    -0.012195    -1.730064     1.159474  0.200885
 H    -0.019885    -0.141094     2.078966  0.210080
 H    -0.019940    -0.140872    -2.078995  0.210067
 H    -0.012229    -1.729941    -1.159671  0.200904
