   28
 
 B     1.369473    -0.017132    -1.446632 -0.018130
 H     1.947787    -0.026113    -2.495326  0.028008
 B     0.503305    -1.465718     0.890702 -0.020238
 H     0.337043    -2.468612     1.524455  0.038597
 B     0.499073    -1.462608    -0.889562 -0.021198
 H     0.332401    -2.463441    -1.526574  0.038043
 B    -0.406789     0.007733     1.371839 -0.063335
 H    -1.195864     0.020226     2.273926  0.045330
 B    -0.406493     0.014897    -1.371864 -0.063551
 H    -1.194585     0.023049    -2.274656  0.046341
 B     1.965481     0.859802     0.001262 -0.110274
 H     2.985297     1.487722     0.003650  0.030438
 B     0.546932     1.459101    -0.893772 -0.001408
 H     0.425580     2.463346    -1.530210  0.048378
 B     0.540204     1.457097     0.892005 -0.006090
 H     0.419593     2.459763     1.531475  0.048147
 B     1.941977    -0.913543    -0.000076 -0.117582
 H     2.942698    -1.571673    -0.001277  0.030659
 B     1.367735    -0.018492     1.447500 -0.018097
 H     1.945701    -0.023064     2.496431  0.028003
 C    -0.798881     0.977766    -0.002756  0.053599
 C    -0.821443    -0.926025     0.001821  0.025451
 N    -2.025858     1.637257    -0.002732 -0.697501
 N    -2.122646    -1.458740    -0.003368 -0.716234
 H    -2.306064    -2.023424    -0.836455  0.347191
 H    -2.323972    -1.997251     0.842845  0.346925
 H    -2.560138     1.511928     0.858644  0.349008
 H    -2.598491     1.441790    -0.825617  0.349557
