   58
FINAL HEAT OF FORMATION = ************
 I    -1.497061    -0.081336     5.037819
 I     0.800246    -4.089789    -0.387214
 C     0.891383    -3.053984     4.543140
 C     1.059063    -4.138164     3.304184
 C     0.513822    -2.996659     2.432618
 C     0.177433    -2.764965     1.118819
 C    -0.696717    -1.622044     0.878419
 C    -1.160223    -1.313282    -0.445785
 C    -2.085058    -0.308050    -0.677072
 C    -2.590110     0.455545     0.417512
 C    -2.154623     0.198554     1.709820
 C    -1.203630    -0.838830     1.999694
 C    -0.783027    -1.137291     3.371915
 C     0.081222    -2.197989     3.528025
 C     0.390572    -3.492368     5.928174
 C    -0.790486    -4.163463     6.279626
 C    -1.027611    -4.455454     7.640672
 C    -0.099478    -4.076161     8.631084
 C     1.086862    -3.396123     8.284486
 C     1.330371    -3.105702     6.929355
 C     2.447702    -2.357400     6.278748
 C     3.558875    -1.681468     6.817853
 C     4.394679    -0.951328     5.946713
 C     4.116079    -0.875784     4.565429
 C     3.000935    -1.547995     4.022664
 C     2.195686    -2.305218     4.883629
 C     0.040310    -5.308770     3.323739
 C    -1.362709    -5.266283     3.263716
 C    -2.083685    -6.480935     3.251764
 C    -1.410050    -7.719294     3.283384
 C    -0.001520    -7.767598     3.286909
 C     0.717934    -6.556125     3.292062
 C     2.173784    -6.295153     3.128943
 C     3.230890    -7.203809     2.947040
 C     4.515011    -6.696584     2.663359
 C     4.720760    -5.308290     2.542553
 C     3.658090    -4.395827     2.730468
 C     2.384381    -4.886830     3.049319
 H    -0.775099    -1.927032    -1.271619
 H    -2.437614    -0.104554    -1.696914
 H    -3.330868     1.244311     0.231992
 H    -2.545073     0.778655     2.555958
 H    -1.518751    -4.462573     5.516597
 H    -1.948822    -4.978954     7.928413
 H    -0.306092    -4.306827     9.684411
 H     1.802287    -3.091611     9.058755
 H     3.759596    -1.703943     7.896549
 H     5.261184    -0.412795     6.352006
 H     4.762438    -0.276999     3.910508
 H     2.749173    -1.461650     2.957085
 H    -1.896136    -4.308705     3.206399
 H    -3.180633    -6.460725     3.209117
 H    -1.987491    -8.653330     3.276168
 H     0.523116    -8.731780     3.263725
 H     3.053300    -8.285425     3.008925
 H     5.355496    -7.387492     2.516203
 H     5.719497    -4.926476     2.294378
 H     3.837092    -3.321751     2.621560
