   66
 
 C     0.002071     3.899024     2.126811
 C     0.002589     4.554294     0.919878
 C     0.002688     4.339961    -1.605917
 H     0.002359     4.476075     3.058110
 H     0.003267     5.648322     0.870676
 H     0.003306     5.426949    -1.739233
 C     0.000912     1.731494     1.069563
 C     0.001186     2.483007     2.220587
 C     0.002279     3.807410    -0.287710
 C     0.002324     3.494277    -2.687051
 C     0.001532     2.080564    -2.544625
 C     0.001076     1.543599    -1.284210
 C     0.001475     2.415385    -0.169139
 C     0.000005     0.210819     0.850769
 C    -1.268299    -0.352797     1.493160
 C    -2.280511     0.541860     1.887287
 C    -3.426973     0.131211     2.547677
 C    -3.623062    -1.216554     2.828005
 C    -2.678132    -2.128992     2.397198
 C    -1.516649    -1.714280     1.722973
 C    -0.668063    -2.799114     1.256813
 C     0.664035    -2.799971     1.257119
 C     1.513846    -1.716222     1.723546
 C     1.267355    -0.354421     1.493617
 C     0.000191     0.082335    -0.804467
 C    -1.318482    -0.478031    -1.329603
 C    -2.410339     0.416943    -1.284063
 C    -3.646558     0.125044    -1.829371
 C    -3.853541    -1.104858    -2.448045
 C    -2.826548    -2.026712    -2.449703
 C    -1.569291    -1.740612    -1.877164
 C    -0.666961    -2.877679    -1.862674
 C     0.664614    -2.878368    -1.862460
 C     1.568097    -1.742211    -1.876741
 C     1.318422    -0.479385    -1.329239
 H     0.000704     2.005921     3.206982
 H     0.002648     3.909053    -3.701041
 H     0.001289     1.443333    -3.434890
 H    -2.196951     1.614524     1.665871
 H    -4.179309     0.869134     2.844841
 H    -4.516765    -1.549720     3.364541
 H    -2.837034    -3.198570     2.580238
 H    -1.205067    -3.683297     0.884171
 H     1.200028    -3.684894     0.884779
 H    -2.295046     1.390641    -0.786236
 H    -4.457651     0.858328    -1.775022
 H    -4.818054    -1.341280    -2.907815
 H    -2.994009    -3.011775    -2.903258
 H    -1.174048    -3.855093    -1.857258
 H     1.170717    -3.856283    -1.856835
 H     2.296668     1.388433    -0.785953
 C     2.674577    -2.132413     2.398162
 C     3.620617    -1.221220     2.829123
 C     3.426391     0.126788     2.548667
 C     2.280620     0.538921     1.887996
 C     2.825172    -2.029568    -2.449050
 C     3.853122    -1.108793    -2.447104
 C     3.647203     0.121345    -1.828546
 C     2.411136     0.414533    -1.283586
 H     2.831982    -3.202178     2.581391
 H     4.513784    -1.555535     3.365837
 H     4.179665     0.863710     2.845944
 H     2.198514     1.611694     1.666575
 H     2.991677    -3.014718    -2.902746
 H     4.817543    -1.346261    -2.906540
 H     4.459020     0.853813    -1.774004
