  212
 
 C     0.821708    -0.003192     0.012539
 C    -0.821708     0.003192    -0.012539
 C     1.429973     0.360821    -1.361153
 C    -1.429973    -0.360821     1.361153
 C    -1.385501     1.390218    -0.387038
 C     1.385501    -1.390218     0.387038
 C     1.398113     1.005800     1.030929
 C    -1.398113    -1.005800    -1.030929
 C     1.008665     1.017548     2.378899
 C    -1.008665    -1.017548    -2.378899
 C    -1.061308    -1.513475     2.070686
 C     1.061308     1.513475    -2.070686
 C     1.013027    -2.549368    -0.307775
 C    -1.013027     2.549368     0.307775
 C     2.392160     1.913599     0.650521
 C    -2.392160    -1.913599    -0.650521
 C    -2.443869     0.427342     1.915710
 C     2.443869    -0.427342    -1.915710
 C     2.361052    -1.530351     1.379233
 C    -2.361052     1.530351    -1.379233
 C     1.531100     1.934849     3.290666
 C    -1.531100    -1.934849    -3.290666
 C    -1.638916    -1.842366     3.297801
 C     1.638916     1.842366    -3.297801
 C     1.550263    -3.799578    -0.007476
 C    -1.550263     3.799578     0.007476
 C     2.944853     2.827950     1.550369
 C    -2.944853    -2.827950    -1.550369
 C    -3.032368     0.122572     3.144631
 C     3.032368    -0.122572    -3.144631
 C     2.902352    -2.775179     1.710798
 C    -2.902352     2.775179    -1.710798
 C     2.518025     2.826545     2.873227
 C    -2.518025    -2.826545    -2.873227
 C    -2.642140    -1.028042     3.821148
 C     2.642140     1.028042    -3.821148
 C     2.496611    -3.906913     1.010535
 C    -2.496611     3.906913    -1.010535
 H     0.265587     0.298224     2.763967
 H    -0.265587    -0.298224    -2.763967
 H    -0.296559    -2.205134     1.676737
 H     0.296559     2.205134    -1.676737
 H     0.285626    -2.503951    -1.135841
 H    -0.285626     2.503951     1.135841
 H     2.777034     1.950218    -0.384326
 H    -2.777034    -1.950218     0.384326
 H    -2.814226     1.336600     1.409252
 H     2.814226    -1.336600    -1.409252
 H     2.734826    -0.660255     1.947876
 H    -2.734826     0.660255    -1.947876
 C     1.058265     1.948522     4.733337
 C    -1.058265    -1.948522    -4.733337
 C    -1.204386    -3.091471     4.043764
 C     1.204386     3.091471    -4.043764
 C     1.065367    -5.037113    -0.740133
 C    -1.065367     5.037113     0.740133
 C     4.012561     3.796312     1.077104
 C    -4.012561    -3.796312    -1.077104
 C    -4.083760     1.053758     3.719249
 C     4.083760    -1.053758    -3.719249
 C     3.937259    -2.874309     2.816355
 C    -3.937259     2.874309    -2.816355
 H     2.962831     3.534184     3.598309
 H    -2.962831    -3.534184    -3.598309
 H    -3.127061    -1.294857     4.779201
 H     3.127061     1.294857    -4.779201
 H     2.927309    -4.895501     1.258642
 H    -2.927309     4.895501    -1.258642
 C     4.226389    -0.870544    -5.231092
 C    -4.226389     0.870544     5.231092
 C    -3.986580     4.283236    -3.410082
 C     3.986580    -4.283236     3.410082
 C     4.113169     5.017340     1.993013
 C    -4.113169    -5.017340    -1.993013
 C     5.419245    -0.748949    -3.040282
 C    -5.419245     0.748949     3.040282
 C    -5.302192     2.523278    -2.222496
 C     5.302192    -2.523278     2.222496
 C     5.352499     3.058939     1.064430
 C    -5.352499    -3.058939    -1.064430
 C     3.686070    -2.508036    -3.452845
 C    -3.686070     2.508036     3.452845
 C    -3.598007     1.896848    -3.943255
 C     3.598007    -1.896848     3.943255
 C     3.679146     4.287594    -0.331977
 C    -3.679146    -4.287594     0.331977
 C     1.471656     2.963326    -5.544822
 C    -1.471656    -2.963326     5.544822
 C    -2.154346     6.111240     0.784246
 C     2.154346    -6.111240    -0.784246
 C     1.226729     3.338583     5.350779
 C    -1.226729    -3.338583    -5.350779
 C    -0.288173     3.354066    -3.850344
 C     0.288173    -3.354066     3.850344
 C     0.149886     5.577874    -0.019162
 C    -0.149886    -5.577874     0.019162
 C    -0.417640     1.566442     4.832109
 C     0.417640    -1.566442    -4.832109
 C     1.996447     4.275090    -3.484577
 C    -1.996447    -4.275090     3.484577
 C    -0.664346     4.708943     2.178868
 C     0.664346    -4.708943    -2.178868
 C     1.896056     0.934569     5.514009
 C    -1.896056    -0.934569    -5.514009
 H     1.258316     3.904386    -6.067631
 H    -1.258316    -3.904386     6.067631
 H    -1.770134     7.049815     1.203661
 H     1.770134    -7.049815    -1.203661
 H     0.960637     3.335565     6.415157
 H    -0.960637    -3.335565    -6.415157
 H     2.522127     2.696098    -5.744467
 H    -2.522127    -2.696098     5.744467
 H    -3.004190     5.792396     1.402111
 H     3.004190    -5.792396    -1.402111
 H     2.266375     3.693622     5.261857
 H    -2.266375    -3.693622    -5.261857
 H     0.845823     2.181173    -5.995266
 H    -0.845823    -2.181173     5.995266
 H    -2.545408     6.326293    -0.223728
 H     2.545408    -6.326293     0.223728
 H     0.586993     4.075699     4.843886
 H    -0.586993    -4.075699    -4.843886
 H     1.779184     5.198844    -4.036818
 H    -1.779184    -5.198844     4.036818
 H    -0.245267     5.587650     2.685856
 H     0.245267    -5.587650    -2.685856
 H     1.622746     0.924120     6.577240
 H    -1.622746    -0.924120    -6.577240
 H     1.746936     4.454583    -2.426926
 H    -1.746936    -4.454583     2.426926
 H     0.095382     3.906669     2.215994
 H    -0.095382    -3.906669    -2.215994
 H     1.751994    -0.083879     5.122159
 H    -1.751994     0.083879    -5.122159
 H     3.078257     4.096057    -3.543051
 H    -3.078257    -4.096057     3.543051
 H    -1.526273     4.360324     2.767580
 H     1.526273    -4.360324    -2.767580
 H     2.967314     1.165584     5.445853
 H    -2.967314    -1.165584    -5.445853
 H    -0.588228     4.306651    -4.307354
 H     0.588228    -4.306651     4.307354
 H     0.510424     6.516140     0.423186
 H    -0.510424    -6.516140    -0.423186
 H    -0.739341     1.476907     5.878239
 H     0.739341    -1.476907    -5.878239
 H    -0.915155     2.561975    -4.298392
 H     0.915155    -2.561975     4.298392
 H    -0.094327     5.774772    -1.072183
 H     0.094327    -5.774772     1.072183
 H    -1.073477     2.313948     4.348376
 H     1.073477    -2.313948    -4.348376
 H    -0.550848     3.398998    -2.777352
 H     0.550848    -3.398998     2.777352
 H     0.995407     4.866378    -0.008789
 H    -0.995407    -4.866378     0.008789
 H    -0.615984     0.599216     4.335487
 H     0.615984    -0.599216    -4.335487
 H     5.075177    -1.444914    -5.622800
 H    -5.075177     1.444914     5.622800
 H    -4.818465     4.387181    -4.117906
 H     4.818465    -4.387181     4.117906
 H     4.979544     5.638263     1.732014
 H    -4.979544    -5.638263    -1.732014
 H     3.321131    -1.205337    -5.758086
 H    -3.321131     1.205337     5.758086
 H    -3.056211     4.520189    -3.946260
 H     3.056211    -4.520189     3.946260
 H     3.215688     5.646704     1.918288
 H    -3.215688    -5.646704    -1.918288
 H     4.381741     0.188528    -5.493580
 H    -4.381741    -0.188528     5.493580
 H    -4.112017     5.045441    -2.623904
 H     4.112017    -5.045441     2.623904
 H     4.215120     4.719991     3.049378
 H    -4.215120    -4.719991    -3.049378
 H     6.209912    -1.423087    -3.395293
 H    -6.209912     1.423087     3.395293
 H    -6.088396     2.547653    -2.988597
 H     6.088396    -2.547653     2.988597
 H     6.158840     3.703722     0.690627
 H    -6.158840    -3.703722    -0.690627
 H     5.742064     0.280149    -3.243615
 H    -5.742064    -0.280149     3.243615
 H    -5.584787     3.230176    -1.431838
 H     5.584787    -3.230176     1.431838
 H     5.631684     2.725893     2.072270
 H    -5.631684    -2.725893    -2.072270
 H     5.346196    -0.865924    -1.950670
 H    -5.346196     0.865924     1.950670
 H    -5.296235     1.516936    -1.782840
 H     5.296235    -1.516936     1.782840
 H     5.310409     2.170720     0.419851
 H    -5.310409    -2.170720    -0.419851
 H     4.439209    -3.206486    -3.836670
 H    -4.439209     3.206486     3.836670
 H    -4.347826     1.930561    -4.742814
 H     4.347826    -1.930561     4.742814
 H     4.444515     4.976351    -0.709479
 H    -4.444515    -4.976351     0.709479
 H     3.563552    -2.695502    -2.372642
 H    -3.563552     2.695502     2.372642
 H    -3.544072     0.860230    -3.568946
 H     3.544072    -0.860230     3.568946
 H     3.599429     3.444475    -1.039737
 H    -3.599429    -3.444475     1.039737
 H     2.719184    -2.745961    -3.932870
 H    -2.719184     2.745961     3.932870
 H    -2.612572     2.131676    -4.385899
 H     2.612572    -2.131676     4.385899
 H     2.706730     4.812592    -0.345547
 H    -2.706730    -4.812592     0.345547
