   66
 
Cl    -1.862641     2.792216    -1.373068
Cl    -1.862594    -2.792158     1.373214
 C    -0.663085    -0.636044     0.324772
 C     0.858946    -0.735704     0.436229
 C     0.858930     0.735735    -0.436227
 C    -0.663104     0.636027    -0.324814
 C    -1.822392     1.280637    -0.632911
 C    -3.064908     0.635336    -0.309297
 C    -4.305236     1.254766    -0.608499
 C    -5.489575     0.634201    -0.307209
 C    -5.489560    -0.634346     0.307106
 C    -4.305208    -1.254873     0.608416
 C    -3.064893    -0.635384     0.309271
 C    -1.822366    -1.280638     0.632937
 C     1.450945    -1.916880    -0.293437
 C     0.628553    -2.854758    -0.927855
 C     1.164939    -3.966226    -1.569048
 C     2.538369    -4.172231    -1.584548
 C     3.370800    -3.255057    -0.953470
 C     2.833594    -2.141995    -0.318174
 C     1.287000    -0.750429     1.951598
 C     0.276434    -0.001106     2.829290
 C     1.324344    -2.202086     2.457787
 C     2.662774    -0.144890     2.239100
 C     1.450881     1.916949     0.293413
 C     0.628485     2.854807     0.927838
 C     1.164861     3.966286     1.569033
 C     2.538278     4.172321     1.584510
 C     3.370720     3.255177     0.953391
 C     2.833532     2.142096     0.318126
 C     1.286987     0.750373    -1.951586
 C     0.276473     0.000905    -2.829225
 C     1.324166     2.201994    -2.457879
 C     2.662841     0.144968    -2.239014
 H    -4.305946     2.241866    -1.087864
 H    -6.443982     1.117570    -0.541122
 H    -6.443957    -1.117752     0.540987
 H    -4.305889    -2.241989     1.087749
 H    -0.463089    -2.732494    -0.915483
 H     0.497498    -4.682613    -2.059403
 H     2.961090    -5.048373    -2.086197
 H     4.455055    -3.407882    -0.955131
 H     3.515488    -1.429900     0.168705
 H    -0.693435    -0.517467     2.863135
 H     0.638835     0.075945     3.863868
 H     0.099887     1.020924     2.466166
 H     2.186653    -2.750952     2.054084
 H     1.402007    -2.235451     3.553517
 H     0.419379    -2.757908     2.177315
 H     2.610352     0.945743     2.369987
 H     3.084066    -0.551234     3.170200
 H     3.393342    -0.343050     1.441482
 H    -0.463160     2.732548     0.915485
 H     0.497407     4.682658     2.059394
 H     2.960999     5.048456     2.086170
 H     4.454968     3.408055     0.954996
 H     3.515440     1.430000    -0.168739
 H     0.099887    -1.021060    -2.465929
 H    -0.693391     0.517270    -2.863201
 H     0.638948    -0.076310    -3.863764
 H     0.419143     2.757741    -2.177445
 H     2.186444     2.750959    -2.054257
 H     1.401789     2.235287    -3.553631
 H     3.084463     0.551766    -3.169767
 H     3.393167     0.342696    -1.441062
 H     2.610389    -0.945606    -2.370459
