   66
 
Cl     2.908347     2.527384     0.454255
Cl     0.807766    -3.258046    -0.401474
 C     0.479679    -0.602934    -0.169023
 C    -0.993636    -0.253773     0.010592
 C    -0.419786     1.388818     0.007035
 C     0.959363     0.735053     0.003911
 C     2.291144     0.999962     0.102679
 C     3.218601    -0.083022    -0.084492
 C     4.618140     0.144504    -0.058210
 C     5.500405    -0.886237    -0.254524
 C     5.025453    -2.192752    -0.484984
 C     3.677683    -2.441920    -0.509379
 C     2.743466    -1.394659    -0.307294
 C     1.330612    -1.656954    -0.307916
 C    -1.536003    -0.864532     1.298668
 C    -0.731499    -1.671240     2.114635
 C    -1.243238    -2.299214     3.244559
 C    -2.577774    -2.139819     3.595042
 C    -3.391873    -1.338406     2.804661
 C    -2.875237    -0.713491     1.676942
 C    -1.945751    -0.655727    -1.086699
 C    -1.648440    -1.689934    -1.977318
 C    -2.571779    -2.093625    -2.936100
 C    -3.808775    -1.467840    -3.028731
 C    -4.114867    -0.427325    -2.158467
 C    -3.192637    -0.027953    -1.200439
 C    -0.772792     2.218368     1.286817
 C    -2.291274     2.358418     1.462867
 C    -0.223479     3.654018     1.270630
 C    -0.168418     1.589040     2.548873
 C    -0.584666     2.171660    -1.360210
 C    -0.508616     1.271704    -2.605105
 C    -1.899551     2.948541    -1.436808
 C     0.561790     3.180496    -1.564406
 H     4.990392     1.161495     0.118791
 H     6.579894    -0.702841    -0.235402
 H     5.742518    -3.005025    -0.643874
 H     3.307508    -3.459412    -0.687577
 H     0.329789    -1.825051     1.882633
 H    -0.586814    -2.924565     3.858879
 H    -2.981985    -2.637919     4.481771
 H    -4.445595    -1.197988     3.067044
 H    -3.541117    -0.071674     1.074594
 H    -0.673253    -2.189351    -1.936567
 H    -2.318351    -2.909704    -3.620885
 H    -4.535356    -1.788697    -3.781821
 H    -5.082846     0.079633    -2.226162
 H    -3.428993     0.809018    -0.513001
 H    -2.852447     1.532583     0.991668
 H    -2.665279     3.284221     0.992349
 H    -2.574415     2.390964     2.522718
 H    -0.659927     4.250904     0.449143
 H    -0.454630     4.173684     2.210059
 H     0.868121     3.676626     1.131188
 H    -0.285440     2.253470     3.417696
 H     0.907828     1.403552     2.424434
 H    -0.645029     0.638302     2.818703
 H     0.203464     0.445483    -2.473620
 H    -1.482981     0.837135    -2.869200
 H    -0.184081     1.840493    -3.489418
 H    -2.772158     2.288274    -1.303882
 H    -2.008231     3.444952    -2.410194
 H    -1.956288     3.727858    -0.654329
 H     0.359767     3.834060    -2.424946
 H     0.719961     3.836854    -0.693405
 H     1.514590     2.668579    -1.761499
