   66
 
 N     1.713008    -0.031697     1.117423
 C     2.876881    -0.641046     0.505307
 C     1.098197     1.092929     0.709058
 C     2.729080    -1.865922    -0.172118
 C     3.857357    -2.487704    -0.704093
 H     3.751644    -3.442488    -1.235259
 C     4.145140    -0.050904     0.641269
 C     5.254552    -0.694494     0.091131
 H     6.247855    -0.236824     0.187236
 C     5.119436    -1.908663    -0.577751
 C     1.405275    -2.514850    -0.376108
 H     0.744337    -2.474379     0.509659
 H     1.509620    -3.575514    -0.643584
 H     0.871602    -2.019646    -1.202210
 B     0.516352     1.324216    -1.164518
 H     1.042950     0.677572    -2.019796
 B     0.817476     2.583259     1.471821
 H     1.332191     2.857787     2.510766
 C     6.312777    -2.589469    -1.142702
 H     6.743157    -3.279113    -0.403360
 H     7.097048    -1.874009    -1.423704
 H     6.062685    -3.176436    -2.036485
 C     4.349452     1.243512     1.342189
 H     3.916081     2.071611     0.743882
 H     5.413306     1.467084     1.496410
 H     3.864242     1.260165     2.327730
 B     1.585674     2.342545    -0.120102
 H     2.734249     2.567410    -0.376646
 B     0.536787     3.041305    -1.346932
 H     0.990988     3.608834    -2.288786
 B     0.601745     3.765219     0.247363
 H     1.060790     4.851619     0.405311
 H     1.218625    -0.612926     1.757875
 N    -1.346234    -0.425760    -0.758873
 C    -2.696937    -0.787498    -0.351498
 C    -0.885375     0.880401    -0.492714
 C    -2.864608    -1.493653     0.849932
 C    -4.146933    -1.891037     1.230025
 H    -4.289668    -2.439782     2.169459
 C    -3.802267    -0.489568    -1.167318
 C    -5.072685    -0.895151    -0.761315
 H    -5.943947    -0.659500    -1.385444
 C    -5.250119    -1.594015     0.432257
 C    -1.713993    -1.809906     1.737823
 H    -0.863930    -2.246571     1.181729
 H    -1.985796    -2.515878     2.533020
 H    -1.346243    -0.881890     2.219903
 B    -0.478585     1.347168     1.129962
 H    -0.950934     0.763878     2.069427
 B    -0.982423     2.260121    -1.503147
 H    -1.625176     2.255356    -2.512437
 C    -6.609558    -2.030533     0.843929
 H    -6.840286    -3.015739     0.415726
 H    -7.383211    -1.331114     0.500179
 H    -6.699680    -2.114774     1.935060
 C    -3.650632     0.232235    -2.460434
 H    -2.979785     1.115209    -2.380988
 H    -4.614995     0.595629    -2.839797
 H    -3.228043    -0.433084    -3.226838
 B    -1.728386     2.136090     0.086123
 H    -2.905551     2.136054     0.274476
 B    -0.775694     3.088154     1.188048
 H    -1.342101     3.663344     2.062497
 B    -0.931183     3.613021    -0.475391
 H    -1.537094     4.597567    -0.756694
 H    -1.171400    -0.690721    -1.705531
