   62
 
 I     3.380136     1.681791    -0.138479
 I    -3.378855     1.684422     0.137782
 C     0.831012    -1.074262    -0.039799
 C    -0.831835    -1.073614     0.040001
 C    -0.720298     0.453964     0.060418
 C    -1.406874     1.616981     0.089374
 C    -0.709273     2.866030     0.045263
 C    -1.390903     4.107349     0.093942
 C    -0.698634     5.292277     0.048642
 C     0.702819     5.291724    -0.048236
 C     1.394135     4.106250    -0.093741
 C     0.711508     2.865473    -0.045317
 C     1.408123     1.615884    -0.089575
 C     0.720645     0.453401    -0.060508
 C     1.334027    -1.757542    -1.280396
 C     2.048479    -1.072726    -2.263111
 C     2.507855    -1.737330    -3.396152
 C     2.255188    -3.093045    -3.563567
 C     1.534904    -3.784290    -2.594078
 C     1.076420    -3.122935    -1.462611
 C     1.557578    -1.527911     1.207691
 C     1.274183    -0.920480     2.437811
 C     1.951986    -1.289583     3.592191
 C     2.934256    -2.272668     3.541894
 C     3.232996    -2.876872     2.327577
 C     2.554533    -2.506105     1.171154
 C    -1.558694    -1.527025    -1.207414
 C    -1.275030    -0.919899    -2.437621
 C    -1.953060    -1.288803    -3.591932
 C    -2.935825    -2.271381    -3.541482
 C    -3.234823    -2.875286    -2.327080
 C    -2.556143    -2.504706    -1.170728
 C    -1.335441    -1.756218     1.280725
 C    -1.078683    -3.121713     1.463396
 C    -1.537737    -3.782452     2.594993
 C    -2.257777    -3.090493     3.564151
 C    -2.509619    -1.734681     3.396280
 C    -2.049654    -1.070690     2.263120
 H    -2.480687     4.168244     0.171619
 H    -1.233860     6.247210     0.087385
 H     1.238811     6.246235    -0.086790
 H     2.483974     4.166269    -0.171327
 H     2.250685    -0.000966    -2.137950
 H     3.069495    -1.185844    -4.157258
 H     2.617150    -3.614895    -4.455130
 H     1.324582    -4.850877    -2.723820
 H     0.492655    -3.667490    -0.703087
 H     0.494966    -0.148148     2.492029
 H     1.710215    -0.803300     4.542872
 H     3.468883    -2.565247     4.451027
 H     4.009100    -3.647510     2.275591
 H     2.823664    -2.992514     0.224735
 H    -0.495418    -0.147980    -2.491977
 H    -1.711051    -0.802781    -4.542686
 H    -3.470656    -2.563781    -4.450553
 H    -4.011309    -3.645531    -2.274973
 H    -2.825519    -2.990824    -0.224229
 H    -0.495125    -3.666858     0.704135
 H    -1.328037    -4.849117     2.725106
 H    -2.620202    -3.611860     4.455809
 H    -3.071081    -1.182639     4.157113
 H    -2.251209     0.001150     2.137621
