   62
 
Br     1.807854     3.262991    -0.243932
Br     1.807313    -3.264044     0.241671
 C    -0.878117     0.834613    -0.058144
 C    -0.878482    -0.834593     0.059016
 C     0.641554    -0.714958     0.082006
 C     1.801901    -1.398209     0.131295
 C     3.049073    -0.708042     0.063507
 C     4.286052    -1.394449     0.122791
 C     5.469468    -0.702369     0.061653
 C     5.469683     0.700456    -0.060982
 C     4.286484     1.392885    -0.122348
 C     3.049284     0.706843    -0.063219
 C     1.802287     1.397311    -0.131189
 C     0.641792     0.714375    -0.081286
 C    -1.552227     1.324685    -1.304836
 C    -2.910154     1.042229    -1.500934
 C    -3.566252     1.495845    -2.637466
 C    -2.876539     2.236933    -3.592511
 C    -1.528354     2.517273    -3.406782
 C    -0.867309     2.062636    -2.269887
 C    -1.306744     1.600256     1.172544
 C    -0.680853     1.349487     2.400073
 C    -1.017156     2.075203     3.535099
 C    -1.985320     3.071218     3.466299
 C    -2.610506     3.333698     2.254088
 C    -2.273129     2.607270     1.116828
 C    -1.308439    -1.599339    -1.171754
 C    -0.677462    -1.354136    -2.397834
 C    -1.015480    -2.078815    -3.533015
 C    -1.990670    -3.068064    -3.465903
 C    -2.621273    -3.324719    -2.255257
 C    -2.282166    -2.599344    -1.117831
 C    -1.552379    -1.324792     1.305808
 C    -0.868246    -2.065593     2.269247
 C    -1.529360    -2.520510     3.405991
 C    -2.876775    -2.237505     3.593279
 C    -3.565627    -1.493390     2.639972
 C    -2.909492    -1.039550     1.503548
 H     4.300603    -2.486387     0.218501
 H     6.424563    -1.236459     0.108109
 H     6.424945     1.234278    -0.107262
 H     4.301360     2.484820    -0.218099
 H    -3.448677     0.445636    -0.746152
 H    -4.626934     1.266475    -2.782228
 H    -3.394471     2.594947    -4.488019
 H    -0.980321     3.097504    -4.156375
 H     0.198172     2.286671    -2.130907
 H     0.079070     0.559483     2.467699
 H    -0.516705     1.860825     4.485009
 H    -2.250585     3.644703     4.360040
 H    -3.370975     4.118773     2.188623
 H    -2.775433     2.843697     0.169914
 H     0.088040    -0.569470    -2.464287
 H    -0.510874    -1.868942    -4.481734
 H    -2.257327    -3.640712    -4.359783
 H    -3.387524    -4.104269    -2.191172
 H    -2.789162    -2.831001    -0.172229
 H     0.196683    -2.291503     2.129250
 H    -0.981985    -3.103134     4.154210
 H    -3.394788    -2.595815     4.488622
 H    -4.625676    -1.261833     2.786030
 H    -3.447252    -0.440452     0.750195
