   74
 
 C    -0.618388    -0.033224    -0.109086
 C    -0.943143    -1.528408    -0.400907
 C     1.024536     0.164399     0.179634
 C    -2.367810    -1.737374    -0.949872
 C     1.164914     1.265493     1.245099
 C    -1.691311     0.386236     0.984651
 C     1.803009     0.627242    -1.095470
 C    -1.704145     1.886958     1.330252
 C    -2.416781     0.567778    -1.870811
 C     2.708651    -1.663922    -1.608979
 C    -0.999061     0.844670    -1.345838
 C    -3.149652     0.139499     0.451650
 C    -1.518404    -0.475172     2.241501
 C     3.237495     1.085855    -0.758636
 C     3.329222    -0.618089     1.042428
 C    -0.913761     2.342862    -1.021790
 C    -3.385420    -1.333938     0.127595
 C     1.881568    -1.052760     0.685778
 C    -3.436551     0.974848    -0.800446
 C     4.042778    -0.104171    -0.220578
 C     2.593086     1.676136     1.566727
 C     1.871365    -0.499628    -2.130953
 C     4.123452    -1.190493    -1.287661
 C     2.074085    -2.194409    -0.328269
 C    -1.800302    -1.946913     1.929541
 C     3.346349     0.469749     2.106262
 C    -1.916186     2.722883     0.065733
 C     3.241777     2.197031     0.286402
 C    -2.578615    -0.907973    -2.209396
 C    -3.320998     2.459871    -0.473616
 C    -0.855341    -2.435286     0.839742
 C    -3.223837    -2.139852     1.412611
 H    -0.290610     0.603597    -2.182809
 H     2.747457    -2.471354    -2.377014
 H     2.581147     2.484710     2.335545
 H     2.875457     0.106759     3.040635
 H    -1.850121    -1.205014    -2.989820
 H     0.168155    -2.512046     1.252348
 H    -4.469194     0.759239    -1.167154
 H    -2.585105     1.177633    -2.791674
 H     0.831583    -0.843496    -2.353056
 H    -1.110549     2.934839    -1.938180
 H     4.621685    -0.802073    -2.197069
 H     4.744337    -2.036289    -0.933576
 H    -3.864175     0.444497     1.257840
 H    -2.522025     2.094792     2.052976
 H    -4.088286     2.753084     0.269082
 H     4.277283     2.535646     0.484182
 H     0.124668     2.607466    -0.714974
 H     1.280950     1.509746    -1.549606
 H     2.693627     3.083273    -0.090092
 H    -3.582948    -1.098785    -2.635397
 H    -0.220887    -1.864551    -1.195158
 H     2.291180    -0.120416    -3.082036
 H     1.412168    -1.445709     1.622198
 H     3.714544     1.461737    -1.696228
 H    -3.426961    -3.212762     1.228424
 H    -3.964852    -1.812729     2.167743
 H    -0.484909    -0.347270     2.634209
 H    -2.504927    -2.817903    -1.198871
 H     4.387172     0.740864     2.369895
 H     0.635826     0.945094     2.172966
 H    -1.654373    -2.549616     2.856643
 H    -3.516353     3.073043    -1.374755
 H     0.649493     2.186125     0.887577
 H     2.718243    -2.979279     0.120883
 H     1.127921    -2.717967    -0.569794
 H    -0.782364     2.192913     1.866237
 H    -1.802626     3.803617     0.315825
 H    -4.419504    -1.477818    -0.268899
 H     3.878053    -1.509611     1.433850
 H    -1.113254    -3.475766     0.548335
 H    -2.197638    -0.125428     3.044062
 H     5.075205     0.227822     0.044908
