   54
 
 B    -0.968638     1.888120    -0.000000
 B    -0.831630     2.941119     1.456857
 B     0.911432     3.269692     1.463422
 B     1.451947     2.359888    -0.000000
 B    -1.507420     3.563427    -0.000000
 B    -0.215542     4.447248     0.844873
 B     1.308672     4.098907    -0.000000
 C     0.297452     1.786040     1.134609
 N     0.502536     0.570860     1.758676
 C    -0.703177    -0.134194     2.270870
 H    -1.432029    -0.171685     1.420094
 H    -1.196531     0.463525     3.070195
 C    -0.337540    -1.493136     2.771653
 C    -0.002067    -1.674737     4.114458
 H    -0.008103    -0.821456     4.802614
 C     0.330949    -2.940602     4.583127
 H     0.593158    -3.080056     5.637229
 C     0.329292    -4.028997     3.716636
 H     0.591489    -5.025262     4.087900
 C    -0.007765    -3.850820     2.378991
 H    -0.010935    -4.706205     1.695111
 C    -0.341584    -2.586752     1.906021
 H    -0.607422    -2.448791     0.846602
 H    -1.804606     1.016501    -0.000000
 H     2.223117     4.860008    -0.000000
 H    -1.540791     2.922430     2.415123
 H     2.574726     1.951039    -0.000000
 H    -2.641589     3.922153    -0.000000
 H     1.566016     3.520569     2.426874
 H    -0.410958     5.468812     1.422553
 H     1.336461     0.480288     2.293555
 B    -0.831630     2.941119    -1.456857
 B     0.911432     3.269692    -1.463422
 B    -0.215542     4.447248    -0.844873
 C     0.297452     1.786040    -1.134609
 N     0.502536     0.570860    -1.758676
 C    -0.703177    -0.134194    -2.270870
 H    -1.432029    -0.171685    -1.420094
 H    -1.196531     0.463525    -3.070195
 C    -0.337540    -1.493136    -2.771653
 C    -0.002067    -1.674737    -4.114458
 H    -0.008103    -0.821456    -4.802614
 C     0.330949    -2.940602    -4.583127
 H     0.593158    -3.080056    -5.637229
 C     0.329292    -4.028997    -3.716636
 H     0.591489    -5.025262    -4.087900
 C    -0.007765    -3.850820    -2.378991
 H    -0.010935    -4.706205    -1.695111
 C    -0.341584    -2.586752    -1.906021
 H    -0.607422    -2.448791    -0.846602
 H    -1.540791     2.922430    -2.415123
 H     1.566016     3.520569    -2.426874
 H    -0.410958     5.468812    -1.422553
 H     1.336461     0.480288    -2.293555
