   50
 
 B    -0.258009     2.100860     1.579944
 B     1.213780     2.849229     1.078777
 B     1.486721     2.858861    -0.649143
 B    -0.217695     3.806953     1.382108
 B     0.880138     4.294777     0.139506
 C     0.761423     1.503525     0.120943
 C     2.482930    -0.092859    -0.325688
 H     2.919900     0.554775    -1.111244
 N     1.424506     0.258403     0.333964
 C     3.154028    -1.365711    -0.054517
 C     4.297260    -1.677610    -0.801893
 H     4.664231    -0.977903    -1.562386
 C     4.969910    -2.871767    -0.582202
 H     5.863461    -3.111193    -1.168265
 C     4.510621    -3.764772     0.382330
 H     5.043280    -4.706061     0.554097
 C     3.376731    -3.459998     1.126316
 H     3.015328    -4.161914     1.885396
 C     2.696779    -2.265266     0.912365
 H     1.803129    -2.034850     1.505121
 H     2.597403     2.896126    -1.081467
 H    -0.431906     1.526694     2.606119
 H     2.132675     2.876433     1.836910
 H    -0.366074     4.510454     2.330071
 H     1.515740     5.294874     0.241417
 B     0.256899     2.100805    -1.579816
 B    -1.215390     2.848278    -1.078796
 B    -1.488327     2.857954     0.649117
 B     0.215445     3.806902    -1.382270
 B    -0.882706     4.294179    -0.139733
 C    -0.762141     1.503000    -0.120754
 C    -2.483345    -0.093909     0.325189
 H    -2.921527     0.554111     1.109762
 N    -1.424343     0.257363    -0.333538
 C    -3.153433    -1.367357     0.054327
 C    -4.297398    -1.679209     0.800600
 H    -4.665657    -0.979030     1.560036
 C    -4.969152    -2.873914     0.581146
 H    -5.863281    -3.113300     1.166344
 C    -4.508229    -3.767521    -0.382047
 H    -5.040181    -4.709243    -0.553630
 C    -3.373603    -3.462799    -1.124933
 H    -3.010915    -4.165189    -1.882960
 C    -2.694542    -2.267520    -0.911212
 H    -1.800298    -2.037153    -1.503089
 H    -2.599035     2.894567     1.081445
 H     0.431192     1.526609    -2.605908
 H    -2.134303     2.874760    -1.836932
 H     0.363356     4.510362    -2.330337
 H    -1.518971     5.293839    -0.241782
