   72
 
 N     1.908586     0.036926     0.983981
 N    -1.604843    -0.288663     0.194558
 C     5.865135    -2.075991     0.662643
 H     6.377148    -2.789630     1.320078
 C     4.476446    -1.963701     0.712472
 C    -3.864614    -0.929453    -0.594217
 C     3.819365    -1.047714    -0.122848
 C     1.233253     1.165259     0.680363
 C     2.328950    -0.921652    -0.069969
 H     1.908692    -0.579794    -1.058563
 H     1.870361    -1.909897     0.165885
 C     6.608683    -1.291047    -0.217206
 B    -1.203421     2.147839    -0.786370
 C    -1.047755     0.982778     0.295239
 B     0.409753     1.339505    -0.712092
 C    -6.141872    -0.248319    -0.130951
 H    -6.896962     0.543497    -0.048794
 C     4.564045    -0.272321    -1.024476
 C    -4.228133    -2.263929    -0.358877
 C     5.953000    -0.396421    -1.060749
 H     6.534779     0.215935    -1.761270
 C    -2.460800    -0.588010    -0.988997
 H    -1.986354    -1.441504    -1.523394
 H    -2.456631     0.293182    -1.689076
 B     1.609731     2.600479    -0.192858
 B    -0.409134     1.527408     1.663589
 C    -4.833918     0.080592    -0.488008
 B     0.249889     3.054218    -1.094636
 C    -5.540105    -2.574807    -0.002155
 H    -5.820532    -3.619546     0.180364
 C    -6.499391    -1.571476     0.119062
 B    -1.717253     2.483004     0.869620
 B     1.122635     2.497695     1.518457
 C     8.087590    -1.422029    -0.269651
 H     8.377092    -2.181979    -1.008562
 H     8.505541    -1.726488     0.699063
 H     8.570539    -0.479071    -0.558530
 C     3.721598    -2.832168     1.656243
 H     4.234152    -3.786963     1.831498
 H     2.712637    -3.059478     1.272223
 H     3.602538    -2.336232     2.629472
 B    -0.947904     3.716126    -0.002682
 C    -3.246033    -3.375292    -0.482662
 H    -3.723721    -4.304860    -0.818872
 H    -2.769224    -3.578338     0.485883
 H    -2.446453    -3.131395    -1.201974
 B     0.682877     3.861869     0.466644
 C    -4.503742     1.507057    -0.741450
 H    -5.369041     2.074556    -1.103899
 H    -3.683877     1.617821    -1.484719
 H    -4.138224     1.996598     0.186376
 B    -0.440869     3.268779     1.672971
 C    -7.890111    -1.908581     0.518433
 H    -7.995314    -1.859857     1.611051
 H    -8.171815    -2.922231     0.203928
 H    -8.619327    -1.211410     0.084807
 C     3.902075     0.682786    -1.950502
 H     4.515347     0.898840    -2.833771
 H     3.688303     1.645944    -1.441756
 H     2.929977     0.289237    -2.297463
 H     0.696584     0.628410    -1.638582
 H    -2.858724     2.590610     1.212711
 H    -0.598074     0.986738     2.711347
 H     1.161762     4.946810     0.562929
 H    -1.981002     2.036878    -1.699934
 H     1.832906     2.739878     2.446571
 H    -1.554228     4.697447    -0.294096
 H     0.415776     3.529454    -2.172686
 H     2.703294     2.793368    -0.639079
 H    -0.691796     3.929172     2.630472
 H     2.355034    -0.031719     1.870186
 H    -1.960855    -0.639783     1.056771
