   66
 
 C    -0.002337     4.244536     1.565819 -0.127578
 C    -0.002526     4.716418     0.266365 -0.211827
 C    -0.002138     4.125350    -2.200908 -0.209145
 H    -0.002777     4.951734     2.390659  0.129669
 H    -0.003068     5.785242     0.069398  0.128810
 H    -0.002660     5.168282    -2.506420  0.126550
 C    -0.001005     1.933694     0.833397  0.066928
 C    -0.001586     2.856538     1.863141 -0.221690
 C    -0.001995     3.801639    -0.817695  0.194225
 C    -0.001600     3.119219    -3.149383 -0.130971
 C    -0.000887     1.745464    -2.789383 -0.190123
 C    -0.000690     1.407389    -1.456348  0.064162
 C    -0.001269     2.421256    -0.486100  0.014281
 C    -0.000138     0.398675     0.879881 -0.131181
 C    -1.270067    -0.123210     1.582480  0.089844
 C    -2.241149     0.763469     2.074531 -0.190166
 C    -3.461883     0.333351     2.587021 -0.131535
 C    -3.770366    -1.024985     2.600976 -0.125828
 C    -2.826566    -1.923934     2.128410 -0.180891
 C    -1.569150    -1.507751     1.650597  0.152495
 C    -0.670436    -2.570382     1.235226 -0.198895
 C     0.673883    -2.569541     1.235207 -0.198926
 C     1.571360    -1.505848     1.650438  0.152524
 C     1.270537    -0.121668     1.582514  0.089752
 C     0.000012     0.008879    -0.827297 -0.119334
 C    -1.351086    -0.619860    -1.223647  0.090117
 C    -2.457093     0.236215    -1.053423 -0.165340
 C    -3.772823    -0.157475    -1.253958 -0.122603
 C    -4.041720    -1.457470    -1.677657 -0.125813
 C    -2.974612    -2.310687    -1.895042 -0.202060
 C    -1.627526    -1.930139    -1.682842  0.139534
 C    -0.670406    -2.979845    -1.981090 -0.203561
 C     0.672399    -2.979268    -1.981558 -0.203585
 C     1.628789    -1.928846    -1.683480  0.139522
 C     1.351462    -0.618856    -1.223940  0.090176
 H    -0.001483     2.534650     2.900013  0.147440
 H    -0.001776     3.382307    -4.203609  0.129259
 H    -0.000497     0.978841    -3.558230  0.137097
 H    -2.071480     1.828087     2.014369  0.139619
 H    -4.179617     1.067462     2.942340  0.123080
 H    -4.729336    -1.376942     2.970102  0.124583
 H    -3.044095    -2.988663     2.132297  0.124421
 H    -1.160703    -3.503038     0.967071  0.129840
 H     1.165293    -3.501613     0.967034  0.129835
 H    -2.285407     1.250855    -0.722185  0.140779
 H    -4.577146     0.548712    -1.071639  0.126394
 H    -5.060806    -1.795619    -1.841131  0.124719
 H    -3.163896    -3.322328    -2.243890  0.123783
 H    -1.136590    -3.919281    -2.271571  0.119161
 H     1.139183    -3.918297    -2.272408  0.119184
 H     2.284683     1.252292    -0.721943  0.140756
 C     2.829399    -1.920513     2.127941 -0.180848
 C     3.772129    -1.020439     2.600502 -0.125805
 C     3.461836     0.337483     2.586971 -0.131573
 C     2.240476     0.766134     2.074745 -0.190101
 C     2.976102    -2.308384    -1.895988 -0.202019
 C     4.042663    -1.454531    -1.678484 -0.125749
 C     3.772943    -0.154868    -1.254314 -0.122571
 C     2.456968     0.237874    -1.053522 -0.165376
 H     3.048269    -2.984967     2.131647  0.124422
 H     4.731659    -1.371200     2.969310  0.124597
 H     4.178663     1.072454     2.942349  0.123086
 H     2.069384     1.830547     2.014949  0.139626
 H     3.166019    -3.319798    -2.245182  0.123779
 H     5.061943    -1.791979    -1.842195  0.124735
 H     4.576809     0.551770    -1.071769  0.126373
