   74
 
 C    -0.623757    -0.030031    -0.123064  0.068454
 C    -0.964395    -1.540902    -0.414542 -0.137613
 C     1.036884     0.186998     0.178292  0.084705
 C    -2.395266    -1.738309    -0.969622 -0.095676
 C     1.204457     1.320827     1.227436 -0.317237
 C    -1.700240     0.382993     1.003987  0.062832
 C     1.829109     0.594816    -1.125353 -0.129165
 C    -1.747632     1.891471     1.353313 -0.293931
 C    -2.448709     0.580518    -1.870938 -0.096901
 C     2.750985    -1.728905    -1.557945 -0.085321
 C    -1.020195     0.871365    -1.353974 -0.130610
 C    -3.161751     0.124230     0.444252 -0.128385
 C    -1.563226    -0.506722     2.255697 -0.289428
 C     3.275216     1.062582    -0.787911 -0.101109
 C     3.358654    -0.576421     1.069059 -0.106211
 C    -0.957184     2.381316    -1.028773 -0.288815
 C    -3.411517    -1.348042     0.117145 -0.088070
 C     1.900281    -1.032615     0.725233 -0.138213
 C    -3.464824     0.983920    -0.790445 -0.088008
 C     4.080467    -0.117489    -0.215304 -0.086200
 C     2.645224     1.744402     1.520997 -0.080621
 C     1.938049    -0.561357    -2.142598 -0.282917
 C     4.171768    -1.249159    -1.241256 -0.267291
 C     2.095428    -2.215514    -0.255452 -0.286018
 C    -1.837702    -1.987265     1.923888 -0.086402
 C     3.397958     0.548905     2.100815 -0.265464
 C    -1.957369     2.747015     0.084472 -0.081447
 C     3.286783     2.220362     0.213432 -0.269180
 C    -2.609688    -0.896801    -2.227200 -0.272634
 C    -3.366886     2.473487    -0.454857 -0.269444
 C    -0.866963    -2.452289     0.833171 -0.283434
 C    -3.262327    -2.177060     1.393865 -0.266194
 H    -0.353151     0.660463    -2.190933  0.126858
 H     2.785534    -2.553004    -2.282017  0.110221
 H     2.622016     2.567179     2.247900  0.109457
 H     2.924405     0.227331     3.038659  0.120162
 H    -1.880926    -1.181281    -2.999183  0.120886
 H     0.133206    -2.505608     1.246106  0.146449
 H    -4.480627     0.749291    -1.139870  0.105900
 H    -2.607012     1.195120    -2.768629  0.106239
 H     0.949481    -0.909738    -2.455056  0.139754
 H    -1.225017     2.938195    -1.937664  0.121976
 H     4.673060    -0.892725    -2.151712  0.120403
 H     4.771872    -2.078431    -0.842788  0.121274
 H    -3.843567     0.417752     1.256195  0.105694
 H    -2.611279     2.042996     2.016553  0.117142
 H    -4.124355     2.740934     0.294158  0.121375
 H     4.318609     2.556500     0.383739  0.122552
 H     0.051590     2.704326    -0.771954  0.141341
 H     1.349416     1.445148    -1.609924  0.127699
 H     2.729552     3.079319    -0.185723  0.122037
 H    -3.609250    -1.080418    -2.644524  0.121910
 H    -0.290984    -1.905245    -1.190394  0.122379
 H     2.434724    -0.187646    -3.048857  0.122197
 H     1.469081    -1.383721     1.667287  0.123319
 H     3.737355     1.389212    -1.730689  0.107445
 H    -3.447611    -3.241026     1.193283  0.120497
 H    -4.005393    -1.851215     2.134720  0.120111
 H    -0.564552    -0.409959     2.696012  0.132846
 H    -2.509802    -2.803535    -1.215902  0.106253
 H     4.439326     0.808789     2.335394  0.121290
 H     0.741487     1.007885     2.166890  0.135847
 H    -1.690867    -2.592264     2.828018  0.109212
 H    -3.562942     3.081397    -1.348685  0.119799
 H     0.681184     2.210621     0.895770  0.143658
 H     2.755446    -2.949161     0.228104  0.120757
 H     1.177361    -2.748783    -0.480629  0.152426
 H    -0.888707     2.227694     1.926064  0.138626
 H    -1.852026     3.809563     0.338617  0.109602
 H    -4.430869    -1.456964    -0.280674  0.105215
 H     3.874416    -1.457972     1.474610  0.109609
 H    -1.125287    -3.475862     0.527030  0.119446
 H    -2.275465    -0.160859     3.018585  0.119705
 H     5.090785     0.227757     0.047192  0.106075
