   23
 
 C    -3.077702     1.185022     0.000002  0.092710
 C    -4.462955     1.198538     0.000003 -0.155540
 C    -5.157200    -0.012201    -0.000000 -0.058684
 C    -4.440317    -1.212803    -0.000002 -0.159289
 C    -3.058508    -1.173976     0.000003  0.098644
 N    -2.403188     0.012487     0.000001 -0.381402
 C    -0.928864     0.007180     0.000002  0.172256
 C    -0.023814     1.256807     0.000036 -0.332526
 C    -0.026329    -0.626383     1.088315 -0.303615
 C    -0.026338    -0.626317    -1.088355 -0.303591
 C     0.894887    -0.001962    -0.000004 -0.052255
 I     3.015851    -0.000586     0.000000 28.098496
 H    -2.473522     2.082738    -0.000004  0.238321
 H    -4.982448     2.149721     0.000006  0.223707
 H    -6.242122    -0.022351    -0.000005  0.224337
 H    -4.943794    -2.172582    -0.000007  0.223821
 H    -2.436982    -2.060429     0.000009  0.228855
 H    -0.007016     1.860006     0.910513  0.192767
 H    -0.007017     1.860056    -0.910410  0.192774
 H    -0.017723    -1.716424     1.156283  0.185539
 H    -0.023271    -0.142133     2.066614  0.194533
 H    -0.023289    -0.142011    -2.066626  0.194548
 H    -0.017740    -1.716354    -1.156385  0.185540
