   72
 
 N     1.599776     0.542244     0.249927 -0.592452
 N    -1.528286     0.493463     0.192926 -0.595833
 C     4.173149    -3.073397     0.356217 -0.246888
 H     3.960257    -4.098154     0.652825  0.114048
 C     3.125224    -2.266579    -0.093846  0.156014
 C    -3.372016    -0.944354    -0.531573 -0.017926
 C     3.393364    -0.938628    -0.476105 -0.021637
 C     0.989196     1.778863     0.205519  0.053691
 C     2.261818    -0.045642    -0.927793 -0.185436
 H     2.633987     0.749908    -1.578386  0.170355
 H     1.524799    -0.612738    -1.505118  0.158044
 C     5.482687    -2.594096     0.442165  0.202515
 B    -1.443171     3.081357    -0.680026  0.012605
 C    -0.959202     1.745919     0.192259  0.060466
 B     0.039583     2.169465    -1.148376  0.032018
 C    -5.651474    -1.154360     0.257794 -0.245187
 H    -6.597458    -0.687879     0.524417  0.116296
 C     4.701086    -0.426602    -0.370096  0.154206
 C    -3.219690    -2.339070    -0.431362  0.154363
 C     5.723271    -1.265509     0.082875 -0.248076
 H     6.732561    -0.868031     0.163481  0.115887
 C    -2.217862    -0.074941    -0.977353 -0.184239
 H    -1.504810    -0.647509    -1.577300  0.157209
 H    -2.579371     0.742653    -1.606897  0.172173
 B     1.470470     3.138817    -0.645599  0.016297
 B    -0.014961     2.131580     1.559565 -0.027213
 C    -4.600861    -0.345812    -0.178963  0.154079
 B     0.007066     3.946697    -1.204960 -0.024894
 C    -4.297638    -3.114596     0.009720 -0.251947
 H    -4.174430    -4.192717     0.083222  0.113802
 C    -5.521000    -2.542936     0.359619  0.204067
 B    -1.472064     3.067049     1.093365  0.009519
 B     1.439896     3.095259     1.126299 -0.002781
 C     6.608563    -3.490121     0.897213 -0.532821
 H     7.068683    -4.008958     0.045854  0.167421
 H     6.253125    -4.257950     1.592321  0.157221
 H     7.398786    -2.918510     1.394995  0.158535
 C     1.719837    -2.818656    -0.148280 -0.556178
 H     1.661775    -3.792462     0.346342  0.157267
 H     1.375493    -2.953085    -1.181944  0.164711
 H     1.009908    -2.143225     0.340917  0.176900
 B    -0.902134     4.505071     0.234006 -0.100821
 C    -1.918798    -3.020439    -0.789438 -0.556758
 H    -1.954361    -4.082763    -0.531377  0.157326
 H    -1.070835    -2.575950    -0.260179  0.176859
 H    -1.701697    -2.949929    -1.862932  0.163516
 B     0.857867     4.531371     0.260934 -0.100347
 C    -4.802617     1.148542    -0.271005 -0.555234
 H    -5.803099     1.425801     0.072440  0.157844
 H    -4.693971     1.510368    -1.300816  0.168542
 H    -4.075377     1.699998     0.333942  0.185534
 B    -0.034353     3.902000     1.680416 -0.016615
 C    -6.669939    -3.390387     0.849014 -0.533744
 H    -6.871211    -3.210076     1.912681  0.165273
 H    -6.459788    -4.457384     0.726931  0.155641
 H    -7.593620    -3.162796     0.304275  0.162577
 C     5.016605     1.009506    -0.721590 -0.552090
 H     6.058636     1.244469    -0.487266  0.159075
 H     4.382632     1.714428    -0.171790  0.180060
 H     4.864798     1.211815    -1.789192  0.167820
 H     0.054405     1.433443    -2.073687  0.017154
 H    -2.471728     2.908988     1.711623  0.019330
 H    -0.010001     1.344775     2.446421  0.026334
 H     1.478445     5.542928     0.286890  0.009265
 H    -2.416116     2.969805    -1.345693  0.021634
 H     2.424648     2.960036     1.774398  0.017997
 H    -1.554058     5.497076     0.232959  0.008896
 H     0.004661     4.537035    -2.234568  0.006664
 H     2.470223     3.046453    -1.275002  0.020263
 H    -0.051479     4.455704     2.730141  0.008318
 H     2.062692     0.342279     1.126943  0.341820
 H    -1.860738     0.168654     1.090086  0.341444
