   70
 
 H    -6.125148    -0.886173    -1.433226
 C    -4.263016    -0.000415     1.049252
 C    -3.453508     0.000031    -0.124739
 C    -4.145216     0.000516    -1.374866
 C    -3.389559     0.000980    -2.520808
 C    -5.691338    -0.000271     0.556282
 C    -5.614658     0.000359    -1.020802
 H    -3.847551     0.001368    -3.505976
 H    -6.239398    -0.887055     0.916719
 H    -6.239483     0.886195     0.917427
 H    -6.125165     0.887226    -1.432519
 H    -0.580368    -4.533636    -1.298087
 C    -1.395952    -0.000381     1.186465
 C    -2.173492    -0.000841     2.326789
 C    -3.616666    -0.000844     2.261881
 C    -1.943204     0.000964    -2.451232
 C    -1.293824     0.000500    -1.241138
 C    -2.081499     0.000049    -0.057385
 C     0.119546    -0.000265     0.888795
 C     0.748465     1.256719     1.499852
 C    -0.073375     2.231804     2.104709
 C     0.448224     3.359183     2.736292
 C     1.830285     3.568950     2.767312
 C     2.662028     2.654850     2.131445
 C     2.135276     1.512373     1.491009
 C     3.115425     0.667824     0.802953
 C     3.115414    -0.668408     0.802763
 C     2.135225    -1.513211     1.490466
 C     2.661915    -2.655833     2.130642
 C     1.830074    -3.570421     2.765707
 C     0.447989    -3.360971     2.734064
 C    -0.073547    -2.233311     2.102912
 C     0.748370    -1.257697     1.499037
 C     0.186979     0.000282    -0.780125
 C     0.714640     1.337523    -1.292105
 C    -0.146563     2.443011    -1.041370
 C     0.109220     3.721344    -1.513152
 C     0.109148    -3.720381    -1.515316
 C    -0.146778    -2.442197    -1.043052
 C     0.714595    -1.336704    -1.292816
 H    -1.713458    -0.001204     3.315204
 H    -4.165600    -0.001183     3.199447
 H    -1.160438     2.143216     2.078851
 H    -0.223005     4.078929     3.200559
 H     2.245389     4.439503     3.269769
 H     3.739106     2.818599     2.126557
 H     3.895797     1.220016     0.268693
 H     3.895798    -1.220466     0.268367
 H     3.739048    -2.819339     2.126225
 H     2.245146    -4.441080     3.267992
 H    -0.223316    -4.081175     3.197501
 H    -1.160625    -2.144932     2.076600
 H    -1.053024     2.296567    -0.447489
 H    -0.579969     4.534629    -1.295073
 H    -1.053539    -2.296073    -0.449583
 H     1.467146    -4.952717    -2.668272
 C     1.262851     3.960729    -2.273825
 C     2.137420     2.912712    -2.502859
 C     1.890420     1.602059    -2.006679
 C     2.979853     0.668783    -2.280813
 C     2.980013    -0.667432    -2.280853
 C     1.890674    -1.600962    -2.007104
 C     2.137907    -2.911394    -2.503547
 C     1.263179    -3.959534    -2.275339
 H    -1.387726     0.001344    -3.387441
 H     1.466536     4.954038    -2.666599
 H     3.044052     3.093243    -3.081023
 H     3.928523     1.170693    -2.527806
 H     3.928782    -1.169141    -2.527768
 H     3.044841    -3.091827    -3.081283
