  212
 
 C     0.809312     0.005043    -0.010238
 C    -0.809312    -0.005043     0.010238
 C     1.388077     0.373661    -1.402129
 C    -1.388077    -0.373661     1.402129
 C    -1.407336     1.376614    -0.364001
 C     1.407336    -1.376614     0.364001
 C     1.406857     1.030536     0.988177
 C    -1.406857    -1.030536    -0.988177
 C     1.019568     1.069540     2.337301
 C    -1.019568    -1.069540    -2.337301
 C    -0.980842    -1.526405     2.099195
 C     0.980842     1.526405    -2.099195
 C     1.054995    -2.552735    -0.321198
 C    -1.054995     2.552735     0.321198
 C     2.443467     1.893949     0.594061
 C    -2.443467    -1.893949    -0.594061
 C    -2.432837     0.380985     1.960444
 C     2.432837    -0.380985    -1.960444
 C     2.404664    -1.482895     1.346621
 C    -2.404664     1.482895    -1.346621
 C     1.579833     1.978746     3.247739
 C    -1.579833    -1.978746    -3.247739
 C    -1.524186    -1.868290     3.342907
 C     1.524186     1.868290    -3.342907
 C     1.622511    -3.796187    -0.006723
 C    -1.622511     3.796187     0.006723
 C     3.036563     2.797876     1.486746
 C    -3.036563    -2.797876    -1.486746
 C    -3.014715     0.047214     3.192876
 C     3.014715    -0.047214    -3.192876
 C     2.993055    -2.712945     1.678975
 C    -2.993055     2.712945    -1.678975
 C     2.595653     2.837521     2.815488
 C    -2.595653    -2.837521    -2.815488
 C    -2.549577    -1.076976     3.881033
 C     2.549577     1.076976    -3.881033
 C     2.601734    -3.866378     0.992026
 C    -2.601734     3.866378    -0.992026
 H     0.272592     0.373491     2.719007
 H    -0.272592    -0.373491    -2.719007
 H    -0.240439    -2.198213     1.663016
 H     0.240439     2.198213    -1.663016
 H     0.333901    -2.519979    -1.137709
 H    -0.333901     2.519979     1.137709
 H     2.830092     1.871855    -0.428477
 H    -2.830092    -1.871855     0.428477
 H    -2.841130     1.246488     1.431279
 H     2.841130    -1.246488    -1.431279
 H     2.761731    -0.598661     1.879817
 H    -2.761731     0.598661    -1.879817
 C     1.040824     1.999118     4.683244
 C    -1.040824    -1.999118    -4.683244
 C    -1.070858    -3.125840     4.094590
 C     1.070858     3.125840    -4.094590
 C     1.154482    -5.040056    -0.772618
 C    -1.154482     5.040056     0.772618
 C     4.193881     3.683745     1.009572
 C    -4.193881    -3.683745    -1.009572
 C    -4.194067     0.862391     3.736851
 C     4.194067    -0.862391    -3.736851
 C     4.063048    -2.745225     2.777058
 C    -4.063048     2.745225    -2.777058
 H     3.057194     3.533704     3.512868
 H    -3.057194    -3.533704    -3.512868
 H    -2.996918    -1.354674     4.835064
 H     2.996918     1.354674    -4.835064
 H     3.067089    -4.820138     1.230947
 H    -3.067089     4.820138    -1.230947
 C     4.240452    -0.819010    -5.277648
 C    -4.240452     0.819010     5.277648
 C    -4.365738     4.178603    -3.255480
 C     4.365738    -4.178603     3.255480
 C     4.349458     4.941719     1.887071
 C    -4.349458    -4.941719    -1.887071
 C     5.482084    -0.238925    -3.160931
 C    -5.482084     0.238925     3.160931
 C    -5.351625     2.121031    -2.205770
 C     5.351625    -2.121031     2.205770
 C     5.481181     2.837989     1.089238
 C    -5.481181    -2.837989    -1.089238
 C     4.098638    -2.339653    -3.309530
 C    -4.098638     2.339653     3.309530
 C    -3.570691     1.930258    -3.990809
 C     3.570691    -1.930258     3.990809
 C     3.963028     4.147454    -0.442470
 C    -3.963028    -4.147454     0.442470
 C     1.038704     2.861189    -5.614806
 C    -1.038704    -2.861189     5.614806
 C    -1.754905     6.342067     0.204150
 C     1.754905    -6.342067    -0.204150
 C     1.723864     3.069807     5.556123
 C    -1.723864    -3.069807    -5.556123
 C    -0.333019     3.582829    -3.665080
 C     0.333019    -3.582829     3.665080
 C     0.380659     5.138215     0.676173
 C    -0.380659    -5.138215    -0.676173
 C    -0.469529     2.303233     4.624270
 C     0.469529    -2.303233    -4.624270
 C     2.088999     4.241909    -3.780467
 C    -2.088999    -4.241909     3.780467
 C    -1.587217     4.904805     2.245707
 C     1.587217    -4.904805    -2.245707
 C     1.276449     0.617924     5.327085
 C    -1.276449    -0.617924    -5.327085
 H     0.647941     3.727137    -6.157997
 H    -0.647941    -3.727137     6.157997
 H    -1.387166     7.214704     0.754091
 H     1.387166    -7.214704    -0.754091
 H     1.322819     3.057907     6.575100
 H    -1.322819    -3.057907    -6.575100
 H     2.035996     2.650578    -6.014437
 H    -2.035996    -2.650578     6.014437
 H    -2.846989     6.350956     0.277840
 H     2.846989    -6.350956    -0.277840
 H     2.802833     2.901412     5.632020
 H    -2.802833    -2.901412    -5.632020
 H     0.399681     2.003839    -5.852220
 H    -0.399681    -2.003839     5.852220
 H    -1.482702     6.483449    -0.846921
 H     1.482702    -6.483449     0.846921
 H     1.562693     4.076396     5.156509
 H    -1.562693    -4.076396    -5.156509
 H     1.842090     5.166680    -4.309841
 H    -1.842090    -5.166680     4.309841
 H    -1.321696     5.796608     2.820893
 H     1.321696    -5.796608    -2.820893
 H     0.888734     0.586084     6.349476
 H    -0.888734    -0.586084    -6.349476
 H     2.106042     4.467107    -2.708208
 H    -2.106042    -4.467107     2.708208
 H    -1.101263     4.044890     2.738296
 H     1.101263    -4.044890    -2.738296
 H     0.776248    -0.180322     4.763785
 H    -0.776248     0.180322    -4.763785
 H     3.103951     3.953022    -4.070747
 H    -3.103951    -3.953022     4.070747
 H    -2.669463     4.762507     2.327816
 H     2.669463    -4.762507    -2.327816
 H     2.343048     0.375073     5.365296
 H    -2.343048    -0.375073    -5.365296
 H    -0.628781     4.501549    -4.178897
 H     0.628781    -4.501549     4.178897
 H     0.756639     6.037058     1.172131
 H    -0.756639    -6.037058    -1.172131
 H    -0.883384     2.488516     5.618326
 H     0.883384    -2.488516    -5.618326
 H    -1.097949     2.819361    -3.885448
 H     1.097949    -2.819361     3.885448
 H     0.709933     5.165319    -0.367643
 H    -0.709933    -5.165319     0.367643
 H    -0.672274     3.188620     3.999584
 H     0.672274    -3.188620    -3.999584
 H    -0.389969     3.782293    -2.585825
 H     0.389969    -3.782293     2.585825
 H     0.875449     4.277611     1.148248
 H    -0.875449    -4.277611    -1.148248
 H    -1.033593     1.467661     4.186596
 H     1.033593    -1.467661    -4.186596
 H     5.046462    -1.449580    -5.666006
 H    -5.046462     1.449580     5.666006
 H    -5.113771     4.176054    -4.055051
 H     5.113771    -4.176054     4.055051
 H     5.147677     5.588877     1.509707
 H    -5.147677    -5.588877    -1.509707
 H     3.300667    -1.178101    -5.711074
 H    -3.300667     1.178101     5.711074
 H    -3.466558     4.664578    -3.649221
 H     3.466558    -4.664578     3.649221
 H     3.425953     5.530660     1.901254
 H    -3.425953    -5.530660    -1.901254
 H     4.414157     0.194994    -5.652527
 H    -4.414157    -0.194994     5.652527
 H    -4.760889     4.802279    -2.447006
 H     4.760889    -4.802279     2.447006
 H     4.601444     4.688489     2.922168
 H    -4.601444    -4.688489    -2.922168
 H     6.373288    -0.764700    -3.515408
 H    -6.373288     0.764700     3.515408
 H    -6.151327     2.105164    -2.951980
 H     6.151327    -2.105164     2.951980
 H     6.355691     3.410483     0.767047
 H    -6.355691    -3.410483    -0.767047
 H     5.578732     0.812986    -3.448568
 H    -5.578732    -0.812986     3.448568
 H    -5.713479     2.683733    -1.339055
 H     5.713479    -2.683733     1.339055
 H     5.666415     2.492082     2.111422
 H    -5.666415    -2.492082    -2.111422
 H     5.485672    -0.279799    -2.066076
 H    -5.485672     0.279799     2.066076
 H    -5.186447     1.088704    -1.877575
 H     5.186447    -1.088704     1.877575
 H     5.412622     1.949797     0.451399
 H    -5.412622    -1.949797    -0.451399
 H     4.951866    -2.916324    -3.678145
 H    -4.951866     2.916324     3.678145
 H    -4.242191     2.035564    -4.846506
 H     4.242191    -2.035564     4.846506
 H     4.782200     4.781643    -0.793160
 H    -4.782200    -4.781643     0.793160
 H     4.079118    -2.447817    -2.217149
 H    -4.079118     2.447817     2.217149
 H    -3.498798     0.860325    -3.759351
 H     3.498798    -0.860325     3.759351
 H     3.888522     3.298483    -1.134674
 H    -3.888522    -3.298483     1.134674
 H     3.186663    -2.805343    -3.699001
 H    -3.186663     2.805343     3.699001
 H    -2.566087     2.262790    -4.301509
 H     2.566087    -2.262790     4.301509
 H     3.033644     4.720996    -0.529049
 H    -3.033644    -4.720996     0.529049
