   66
 
Cl     2.921482     2.545036     0.544987
Cl     0.786293    -3.259872    -0.407603
 C     0.476805    -0.585498    -0.213290
 C    -0.990797    -0.209382     0.000773
 C    -0.444925     1.368391     0.059825
 C     0.958174     0.760468     0.009137
 C     2.289057     1.007956     0.099745
 C     3.235244    -0.061719    -0.147148
 C     4.641072     0.169230    -0.155104
 C     5.523068    -0.859456    -0.403274
 C     5.043043    -2.168572    -0.656579
 C     3.689428    -2.423022    -0.652350
 C     2.754582    -1.380004    -0.394693
 C     1.329193    -1.629495    -0.363650
 C    -1.507281    -0.901038     1.270956
 C    -0.623624    -1.592802     2.123339
 C    -1.084247    -2.305452     3.233405
 C    -2.448181    -2.349777     3.529751
 C    -3.340597    -1.669547     2.699753
 C    -2.875796    -0.961348     1.587337
 C    -1.960695    -0.568115    -1.108261
 C    -1.679421    -1.577579    -2.041653
 C    -2.624341    -1.944648    -3.006058
 C    -3.863641    -1.304140    -3.065518
 C    -4.149176    -0.280950    -2.155885
 C    -3.207202     0.080029    -1.193342
 C    -0.798927     2.134586     1.389386
 C    -2.310524     2.034045     1.689671
 C    -0.444764     3.639913     1.365492
 C    -0.003979     1.574929     2.590111
 C    -0.627655     2.213472    -1.278917
 C    -0.568480     1.360210    -2.568806
 C    -1.948904     3.003265    -1.293897
 C     0.537387     3.222041    -1.454157
 H     5.028310     1.172093     0.031538
 H     6.597558    -0.678156    -0.409958
 H     5.757230    -2.966963    -0.855226
 H     3.331055    -3.433756    -0.854228
 H     0.452846    -1.582263     1.948756
 H    -0.371521    -2.831765     3.866686
 H    -2.808724    -2.907299     4.390618
 H    -4.408266    -1.694005     2.911944
 H    -3.620347    -0.457611     0.971511
 H    -0.716695    -2.079768    -2.048177
 H    -2.386741    -2.737182    -3.714425
 H    -4.597991    -1.595084    -3.812702
 H    -5.106876     0.234323    -2.198792
 H    -3.428732     0.902119    -0.496833
 H    -2.521089     1.288515     2.465362
 H    -2.895345     1.765568     0.799123
 H    -2.717550     2.978525     2.065092
 H    -1.092957     4.208871     0.682754
 H    -0.563747     4.084098     2.359544
 H     0.595526     3.811741     1.059233
 H    -0.247855     2.127851     3.505213
 H     1.076793     1.664940     2.445435
 H    -0.223531     0.529492     2.805951
 H     0.125361     0.519236    -2.490625
 H    -1.546249     0.971111    -2.869814
 H    -0.230997     1.961395    -3.422394
 H    -2.803706     2.391551    -0.981661
 H    -2.168709     3.385348    -2.296482
 H    -1.912470     3.872226    -0.619550
 H     0.287663     3.968463    -2.216148
 H     0.787632     3.776960    -0.544582
 H     1.454578     2.725705    -1.789279
