   74
 
 C    -0.601741    -0.032308    -0.114571
 C    -0.951707    -1.519128    -0.470409
 C     1.009307     0.121664     0.194941
 C    -2.386398    -1.698735    -1.041093
 C     1.149950     0.929300     1.511446
 C    -1.689207     0.342366     0.998808
 C     1.829614     0.885028    -0.916502
 C    -1.695251     1.837490     1.415674
 C    -2.416120     0.666271    -1.860512
 C     2.744644    -1.227107    -1.985599
 C    -0.984393     0.911608    -1.311088
 C    -3.161714     0.130548     0.452827
 C    -1.561422    -0.584539     2.232011
 C     3.279049     1.226741    -0.450745
 C     3.316567    -0.888061     0.876504
 C    -0.899076     2.404470    -0.912551
 C    -3.417921    -1.335544     0.054424
 C     1.861710    -1.193324     0.389774
 C    -3.451307     1.028012    -0.770007
 C     4.073428    -0.080290    -0.209384
 C     2.588920     1.237027     1.950278
 C     1.950764     0.070566    -2.223643
 C     4.172054    -0.883523    -1.517571
 C     2.044743    -2.046603    -0.887106
 C    -1.837698    -2.052410     1.846091
 C     3.325927    -0.090967     2.189706
 C    -1.920719     2.742049     0.187584
 C     3.277778     2.056257     0.844036
 C    -2.586650    -0.803839    -2.273981
 C    -3.336966     2.508871    -0.372490
 C    -0.863103    -2.482669     0.737641
 C    -3.269620    -2.221125     1.303287
 H    -0.293727     0.712169    -2.166596
 H     2.790145    -1.817489    -2.927234
 H     2.568945     1.828553     2.893674
 H     2.837122    -0.664003     2.996469
 H    -1.862128    -1.069328    -3.063854
 H     0.160637    -2.537154     1.158480
 H    -4.479108     0.830717    -1.147915
 H    -2.572610     1.316956    -2.750275
 H     0.939869    -0.167114    -2.616507
 H    -1.077698     3.036143    -1.801211
 H     4.705616    -0.302194    -2.288923
 H     4.761678    -1.803509    -1.364093
 H    -3.863560     0.405060     1.273586
 H    -2.494270     2.011041     2.160169
 H    -4.102659     2.768320     0.378405
 H     4.309907     2.315956     1.136645
 H     0.125386     2.656678    -0.567492
 H     1.343260     1.865192    -1.134326
 H     2.752599     3.014772     0.691206
 H    -3.586766    -0.967831    -2.712545
 H    -0.247674    -1.858934    -1.271416
 H     2.442774     0.680410    -3.001615
 H     1.380717    -1.811388     1.187661
 H     3.772426     1.815034    -1.257249
 H    -3.468337    -3.278530     1.058693
 H    -4.014482    -1.937626     2.066538
 H    -0.544891    -0.499441     2.671037
 H    -2.522853    -2.763017    -1.338264
 H     4.361264     0.089836     2.526694
 H     0.646297     0.372387     2.332262
 H    -1.700136    -2.697448     2.742629
 H    -3.525908     3.162352    -1.241181
 H     0.622923     1.901161     1.400917
 H     2.633472    -2.950657    -0.648003
 H     1.077447    -2.427102    -1.273213
 H    -0.766187     2.139030     1.932037
 H    -1.807347     3.807411     0.488922
 H    -4.447606    -1.447857    -0.351805
 H     3.836823    -1.858800     1.041709
 H    -1.089134    -3.512343     0.405012
 H    -2.260552    -0.267154     3.024528
 H     5.097671     0.161183     0.149752
