   23
 
 C    -3.095658     1.202079    -0.000043
 C    -4.491700     1.190527     0.000071
 C    -5.183597    -0.026216     0.000269
 C    -4.455330    -1.222711     0.000153
 C    -3.060833    -1.191547    -0.000132
 N    -2.390825     0.016316    -0.000132
 C    -0.935503     0.023865    -0.000248
 C     0.008871     1.281653     0.000224
 C    -0.003684    -0.618469     1.097581
 C    -0.003552    -0.617798    -1.098261
 C     0.934753     0.007388    -0.000088
 I     3.012162    -0.006033     0.000083
 H    -2.528678     2.149643     0.000010
 H    -5.039074     2.144803    -0.000064
 H    -6.282922    -0.042936     0.000524
 H    -4.974441    -2.192620     0.000277
 H    -2.461678    -2.118836    -0.000411
 H     0.033363     1.916949     0.890240
 H     0.033564     1.917445    -0.889397
 H     0.003304    -1.705335     1.208297
 H     0.010711    -0.166377     2.093603
 H     0.011021    -0.165161    -2.094040
 H     0.003428    -1.704644    -1.209639
