   28
 
 B     1.309908     0.053486    -1.409398
 H     1.861425     0.054243    -2.464888
 B     0.660705    -1.506977     0.868007
 H     0.601480    -2.498415     1.518654
 B     0.549363    -1.427783    -0.885464
 H     0.513682    -2.335138    -1.654059
 B    -0.426033    -0.110132     1.247301
 H    -1.085128    -0.105124     2.242690
 B    -0.444845     0.067410    -1.227813
 H    -1.101725     0.037791    -2.225590
 B     1.917005     0.894989     0.036422
 H     2.906391     1.555340     0.084319
 B     0.600659     1.524906    -0.888994
 H     0.473162     2.502478    -1.551124
 B     0.464295     1.427455     0.889240
 H     0.418552     2.332660     1.662208
 B     1.971059    -0.815582    -0.034493
 H     3.002397    -1.406373    -0.087476
 B     1.318786    -0.017574     1.414291
 H     1.872811     0.033856     2.466209
 C    -0.868220     1.109840    -0.011368
 C    -0.819828    -1.093837     0.002566
 N    -2.081741     1.740052     0.027373
 N    -2.065857    -1.716332    -0.056928
 H    -2.221176    -2.351459    -0.832699
 H    -2.445489    -2.060108     0.818259
 H    -2.471557     2.002171     0.924238
 H    -2.767858     1.525036    -0.686530
