   72
 
 N     2.144956     1.361167     0.333415
 N    -1.099693     0.271891    -0.280175
 C     3.699650    -2.842889     0.761193
 H     3.313244    -3.724501     1.267582
 C     2.822899    -1.827849     0.361421
 C    -3.062738    -1.128097    -0.742866
 C     3.321998    -0.685207    -0.303692
 C     1.192846     2.305652     0.254464
 C     2.380692     0.385995    -0.774846
 H     2.782440     0.936120    -1.658726
 H     1.406155    -0.051385    -1.110021
 C     5.076663    -2.734077     0.516674
 B    -1.586602     2.911254    -0.813712
 C    -0.930178     1.630467    -0.008906
 B     0.190010     2.535845    -1.014774
 C    -5.134680    -1.645415     0.425958
 H    -6.052214    -1.314360     0.907159
 C     4.709990    -0.568451    -0.530636
 C    -2.767778    -2.506337    -0.802178
 C     5.575432    -1.593032    -0.123736
 H     6.643589    -1.500708    -0.307250
 C    -2.102629    -0.124031    -1.320350
 H    -1.531820    -0.542112    -2.181721
 H    -2.642767     0.763933    -1.731665
 B     1.121685     3.979629    -0.377734
 B    -0.347299     2.143404     1.401139
 C    -4.253078    -0.699682    -0.114501
 B    -0.423360     4.198462    -1.041134
 C    -3.660639    -3.440107    -0.260083
 H    -3.433101    -4.501431    -0.316195
 C    -4.846780    -3.014953     0.352474
 B    -1.948160     2.789407     0.903757
 B     0.861650     3.471918     1.325916
 C     5.995070    -3.829872     0.947437
 H     5.711654    -4.790885     0.493427
 H     5.965900    -3.967705     2.038591
 H     7.042296    -3.643059     0.675437
 C     1.366413    -1.973348     0.666414
 H     1.147071    -2.870733     1.261275
 H     0.755566    -2.047126    -0.254776
 H     0.986499    -1.113778     1.237626
 B    -1.621865     4.340416     0.229781
 C    -1.505228    -3.001883    -1.436045
 H    -1.374505    -4.086367    -1.324226
 H    -0.609610    -2.523578    -0.997857
 H    -1.494439    -2.791575    -2.515686
 B    -0.013142     4.825872     0.582151
 C    -4.596668     0.748726    -0.002892
 H    -5.602333     0.919119     0.402577
 H    -4.556425     1.259791    -0.975517
 H    -3.890096     1.291444     0.671763
 B    -0.834997     3.789791     1.733870
 C    -5.804874    -4.006514     0.927833
 H    -6.002335    -3.802736     1.990262
 H    -5.443380    -5.040472     0.859484
 H    -6.773066    -3.968192     0.406742
 C     5.287290     0.635945    -1.203051
 H     6.385876     0.649402    -1.176034
 H     4.950597     1.570753    -0.731632
 H     4.998628     0.678485    -2.263913
 H     0.464628     2.064037    -2.077247
 H    -2.963999     2.299367     1.300266
 H    -0.203364     1.395684     2.318891
 H     0.267043     5.951761     0.847368
 H    -2.326611     2.697888    -1.722227
 H     1.620664     3.651599     2.228552
 H    -2.502486     5.136587     0.158584
 H    -0.508763     4.849748    -2.033857
 H     2.168840     4.269596    -0.854408
 H    -1.056036     4.191023     2.830821
 H     2.608272     1.160851     1.222817
 H    -1.140091    -0.328129     0.554247
