   28
 
 B     0.375203     6.649641     5.259142
 H     0.853910     6.081848     6.176431
 B    -1.990792     7.598915     3.937590
 H    -3.160507     7.663086     3.796101
 B    -1.209742     6.169737     4.636632
 H    -1.830125     5.230007     4.989545
 B    -0.943650     8.103788     2.575055
 H    -1.368761     8.463588     1.534691
 B     0.270087     5.891796     3.664245
 H     0.623865     4.816333     3.331794
 B     0.557483     8.408813     4.991754
 H     1.169943     9.104965     5.722136
 B     1.400529     7.249788     3.946976
 H     2.556307     7.051843     3.838324
 B     0.617840     8.677676     3.237290
 H     1.222516     9.487736     2.632836
 B    -1.024780     7.753044     5.415584
 H    -1.548599     7.975306     6.449841
 B    -0.894223     8.974047     4.113158
 H    -1.319377    10.070786     4.210085
 C     0.494937     7.161373     2.536800
 C    -1.193113     6.468075     2.988130
 N     1.021673     6.837793     1.295738
 N    -1.764386     5.664822     1.998869
 H    -1.889572     4.703003     2.273377
 H    -2.602000     6.049593     1.590928
 H     0.544902     7.241956     0.506379
 H     1.233534     5.863141     1.157867
