   66
 
 C     0.001142     4.211045     1.645002 -0.126424
 C     0.001702     4.708678     0.355263 -0.211872
 C     0.002178     4.169927    -2.122136 -0.209359
 H     0.001180     4.901524     2.484512  0.129698
 H     0.002229     5.781668     0.179505  0.128931
 H     0.002713     5.219753    -2.404824  0.126690
 C     0.000436     1.910511     0.866963  0.062778
 C     0.000519     2.816872     1.913895 -0.218795
 C     0.001651     3.814682    -0.746526  0.194145
 C     0.002037     3.184709    -3.092320 -0.130478
 C     0.001363     1.803853    -2.761707 -0.186481
 C     0.000847     1.431257    -1.435108  0.052795
 C     0.000982     2.425427    -0.443364  0.017260
 C     0.000010     0.368310     0.890365 -0.123570
 C    -1.276248    -0.157228     1.606321  0.091124
 C    -2.249889     0.734613     2.093981 -0.190680
 C    -3.441086     0.312876     2.680457 -0.130851
 C    -3.725181    -1.047278     2.779563 -0.125068
 C    -2.791782    -1.952314     2.297686 -0.182765
 C    -1.563311    -1.542616     1.739169  0.143069
 C    -0.672736    -2.622609     1.339222 -0.195885
 C     0.671951    -2.622796     1.339279 -0.195963
 C     1.562891    -1.543086     1.739122  0.143150
 C     1.276250    -0.157608     1.606290  0.091045
 C    -0.000013     0.011936    -0.839072 -0.114246
 C    -1.355834    -0.609359    -1.277364  0.092142
 C    -2.465195     0.255051    -1.158941 -0.165363
 C    -3.769154    -0.109037    -1.473023 -0.125575
 C    -4.027994    -1.393355    -1.947454 -0.125951
 C    -2.962869    -2.266194    -2.084757 -0.199456
 C    -1.627476    -1.914211    -1.766765  0.133539
 C    -0.673522    -2.984952    -2.008478 -0.202194
 C     0.669864    -2.985697    -2.008775 -0.202181
 C     1.625066    -1.916050    -1.767148  0.133540
 C     1.354988    -0.611001    -1.277413  0.092107
 H     0.000114     2.478501     2.946029  0.146679
 H     0.002401     3.469985    -4.141232  0.129251
 H     0.001241     1.058637    -3.551990  0.137064
 H    -2.100050     1.799257     1.989884  0.140762
 H    -4.152674     1.054627     3.033667  0.123794
 H    -4.656806    -1.395453     3.217197  0.125563
 H    -2.991367    -3.019112     2.363660  0.124663
 H    -1.167323    -3.563536     1.106692  0.129834
 H     1.166294    -3.563888     1.106804  0.129820
 H    -2.308413     1.261620    -0.795261  0.140074
 H    -4.572394     0.610717    -1.342526  0.126814
 H    -5.036192    -1.706696    -2.204191  0.125766
 H    -3.143649    -3.270274    -2.460252  0.124450
 H    -1.141813    -3.932709    -2.268553  0.120171
 H     1.136987    -3.933962    -2.269131  0.120136
 H     2.309868     1.258688    -0.794818  0.140071
 C     2.791308    -1.953162     2.297495 -0.182753
 C     3.725050    -1.048409     2.779243 -0.125133
 C     3.441323     0.311819     2.680197 -0.130862
 C     2.250157     0.733925     2.093910 -0.190673
 C     2.960018    -2.269530    -2.085336 -0.199408
 C     4.026189    -1.398034    -1.947795 -0.125970
 C     3.768944    -0.113550    -1.472956 -0.125589
 C     2.465436     0.252027    -1.158753 -0.165338
 H     2.990549    -3.020024     2.363515  0.124663
 H     4.656632    -1.396853     3.216753  0.125543
 H     4.153190     1.053370     3.033263  0.123810
 H     2.100576     1.798623     1.989951  0.140780
 H     3.139569    -3.273739    -2.461118  0.124459
 H     5.033977    -1.712515    -2.204736  0.125718
 H     4.573087     0.605138    -1.342198  0.126801
