  212
 
 C     0.854911    -0.002868     0.014127 -0.088916
 C    -0.854911     0.002868    -0.014127 -0.088916
 C     1.494742     0.328302    -1.397530  0.075346
 C    -1.494742    -0.328302     1.397530  0.075346
 C    -1.461197     1.403458    -0.439732  0.065938
 C     1.461197    -1.403458     0.439732  0.065938
 C     1.444459     1.064003     1.024822  0.070754
 C    -1.444459    -1.064003    -1.024822  0.070754
 C     1.058205     1.118964     2.378603 -0.253107
 C    -1.058205    -1.118964    -2.378603 -0.253107
 C    -1.106481    -1.448383     2.167095 -0.268569
 C     1.106481     1.448383    -2.167095 -0.268569
 C     1.086537    -2.612239    -0.178043 -0.253520
 C    -1.086537     2.612239     0.178043 -0.253520
 C     2.504774     1.902201     0.643786 -0.246995
 C    -2.504774    -1.902201    -0.643786 -0.246995
 C    -2.603803     0.392633     1.859078 -0.243874
 C     2.603803    -0.392633    -1.859078 -0.243874
 C     2.546966    -1.467286     1.329302 -0.249675
 C    -2.546966     1.467286    -1.329302 -0.249675
 C     1.647947     1.996958     3.300572  0.188335
 C    -1.647947    -1.996958    -3.300572  0.188335
 C    -1.761326    -1.811490     3.349080  0.192694
 C     1.761326     1.811490    -3.349080  0.192694
 C     1.729529    -3.831132     0.087776  0.193568
 C    -1.729529     3.831132    -0.087776  0.193568
 C     3.148929     2.774226     1.537048  0.191566
 C    -3.148929    -2.774226    -1.537048  0.191566
 C    -3.313094     0.047605     3.025325  0.189002
 C     3.313094    -0.047605    -3.025325  0.189002
 C     3.239376    -2.657776     1.605567  0.193883
 C    -3.239376     2.657776    -1.605567  0.193883
 C     2.691160     2.822487     2.856546 -0.282937
 C    -2.691160    -2.822487    -2.856546 -0.282937
 C    -2.869994    -1.050210     3.758838 -0.279466
 C     2.869994     1.050210    -3.758838 -0.279466
 C     2.808937    -3.831478     0.981366 -0.283212
 C    -2.808937     3.831478    -0.981366 -0.283212
 H     0.288089     0.451750     2.731225  0.153455
 H    -0.288089    -0.451750    -2.731225  0.153455
 H    -0.280773    -2.051708     1.829967  0.159232
 H     0.280773     2.051708    -1.829967  0.159232
 H     0.283622    -2.606906    -0.897807  0.157834
 H    -0.283622     2.606906     0.897807  0.157834
 H     2.868220     1.864900    -0.372003  0.150492
 H    -2.868220    -1.864900     0.372003  0.150492
 H    -2.959644     1.238141     1.290398  0.150470
 H     2.959644    -1.238141    -1.290398  0.150470
 H     2.893992    -0.561075     1.803175  0.148900
 H    -2.893992     0.561075    -1.803175  0.148900
 C     1.200448     1.985496     4.780130  0.030228
 C    -1.200448    -1.985496    -4.780130  0.030228
 C    -1.340666    -3.028352     4.200827  0.034842
 C     1.340666     3.028352    -4.200827  0.034842
 C     1.252335    -5.124848    -0.609052  0.028258
 C    -1.252335     5.124848     0.609052  0.028258
 C     4.366950     3.591531     1.055606  0.031105
 C    -4.366950    -3.591531    -1.055606  0.031105
 C    -4.560575     0.862852     3.423370  0.031029
 C     4.560575    -0.862852    -3.423370  0.031029
 C     4.458215    -2.628446     2.551737  0.031137
 C    -4.458215     2.628446    -2.551737  0.031137
 H     3.164701     3.496971     3.555998  0.121586
 H    -3.164701    -3.496971    -3.555998  0.121586
 H    -3.394647    -1.336577     4.662360  0.121304
 H     3.394647     1.336577    -4.662360  0.121304
 H     3.325647    -4.758597     1.185223  0.122023
 H    -3.325647     4.758597    -1.185223  0.122023
 C     5.173951    -0.387565    -4.754838 -0.457801
 C    -5.173951     0.387565     4.754838 -0.457801
 C    -5.088804     4.021327    -2.745571 -0.457288
 C     5.088804    -4.021327     2.745571 -0.457288
 C     4.898491     4.550567     2.138745 -0.457064
 C    -4.898491    -4.550567    -2.138745 -0.457064
 C     5.635843    -0.714512    -2.319932 -0.454802
 C    -5.635843     0.714512     2.319932 -0.454802
 C    -5.541810     1.692476    -1.964088 -0.454365
 C     5.541810    -1.692476     1.964088 -0.454365
 C     5.506263     2.612359     0.680400 -0.451619
 C    -5.506263    -2.612359    -0.680400 -0.451619
 C     4.194065    -2.357410    -3.575010 -0.459245
 C    -4.194065     2.357410     3.575010 -0.459245
 C    -4.033254     2.100657    -3.940889 -0.456520
 C     4.033254    -2.100657     3.940889 -0.456520
 C     4.001086     4.436370    -0.186426 -0.463001
 C    -4.001086    -4.436370     0.186426 -0.463001
 C     1.071985     2.583459    -5.658794 -0.453313
 C    -1.071985    -2.583459     5.658794 -0.453313
 C    -2.110941     6.349350     0.235627 -0.456855
 C     2.110941    -6.349350    -0.235627 -0.456855
 C     1.800175     3.156458     5.585291 -0.457323
 C    -1.800175    -3.156458    -5.585291 -0.457323
 C     0.065695     3.707651    -3.671319 -0.484682
 C    -0.065695    -3.707651     3.671319 -0.484682
 C     0.208545     5.423442     0.201166 -0.460841
 C    -0.208545    -5.423442    -0.201166 -0.460841
 C    -0.337789     2.079390     4.893852 -0.469353
 C     0.337789    -2.079390    -4.893852 -0.469353
 C     2.481527     4.074683    -4.199094 -0.448822
 C    -2.481527    -4.074683     4.199094 -0.448822
 C    -1.315850     4.952278     2.143764 -0.462662
 C     1.315850    -4.952278    -2.143764 -0.462662
 C     1.671072     0.664884     5.433402 -0.453949
 C    -1.671072    -0.664884    -5.433402 -0.453949
 H     0.779285     3.447079    -6.268692  0.135877
 H    -0.779285    -3.447079     6.268692  0.135877
 H    -1.731179     7.234962     0.757972  0.138541
 H     1.731179    -7.234962    -0.757972  0.138541
 H     1.413564     3.131480     6.610606  0.138897
 H    -1.413564    -3.131480    -6.610606  0.138897
 H     1.955746     2.135064    -6.124397  0.140478
 H    -1.955746    -2.135064     6.124397  0.140478
 H    -3.159625     6.219278     0.527089  0.142491
 H     3.159625    -6.219278    -0.527089  0.142491
 H     2.892601     3.099702     5.649345  0.142061
 H    -2.892601    -3.099702    -5.649345  0.142061
 H     0.261278     1.848074    -5.703873  0.153398
 H    -0.261278    -1.848074     5.703873  0.153398
 H    -2.077619     6.562510    -0.838936  0.143475
 H     2.077619    -6.562510     0.838936  0.143475
 H     1.532167     4.127079     5.152019  0.144599
 H    -1.532167    -4.127079    -5.152019  0.144599
 H     2.207692     4.938782    -4.817459  0.135853
 H    -2.207692    -4.938782     4.817459  0.135853
 H    -0.975345     5.868437     2.642650  0.132995
 H     0.975345    -5.868437    -2.642650  0.132995
 H     1.347482     0.616938     6.481037  0.135784
 H    -1.347482    -0.616938    -6.481037  0.135784
 H     2.681357     4.435530    -3.183863  0.153987
 H    -2.681357    -4.435530     3.183863  0.153987
 H    -0.678090     4.131673     2.483851  0.164641
 H     0.678090    -4.131673    -2.483851  0.164641
 H     1.260247    -0.205746     4.912184  0.162209
 H    -1.260247     0.205746    -4.912184  0.162209
 H     3.414545     3.661634    -4.597520  0.139394
 H    -3.414545    -3.661634     4.597520  0.139394
 H    -2.339672     4.746673     2.476100  0.148578
 H     2.339672    -4.746673    -2.476100  0.148578
 H     2.763936     0.584269     5.413433  0.145542
 H    -2.763936    -0.584269    -5.413433  0.145542
 H    -0.200783     4.549177    -4.321819  0.132505
 H     0.200783    -4.549177     4.321819  0.132505
 H     0.570824     6.323364     0.714801  0.132034
 H    -0.570824    -6.323364    -0.714801  0.132034
 H    -0.635905     2.044312     5.949286  0.131278
 H     0.635905    -2.044312    -5.949286  0.131278
 H    -0.785797     3.019641    -3.648638  0.160550
 H     0.785797    -3.019641     3.648638  0.160550
 H     0.287781     5.598128    -0.878080  0.147585
 H    -0.287781    -5.598128     0.878080  0.147585
 H    -0.707090     3.020465     4.472328  0.153343
 H     0.707090    -3.020465    -4.472328  0.153343
 H     0.201790     4.102435    -2.659950  0.162273
 H    -0.201790    -4.102435     2.659950  0.162273
 H     0.875787     4.596582     0.460496  0.165921
 H    -0.875787    -4.596582    -0.460496  0.165921
 H    -0.846408     1.259124     4.380615  0.169244
 H     0.846408    -1.259124    -4.380615  0.169244
 H     6.046360    -1.004520    -4.998818  0.139229
 H    -6.046360     1.004520     4.998818  0.139229
 H    -5.944618     3.945251    -3.426127  0.138771
 H     5.944618    -3.945251     3.426127  0.138771
 H     5.747897     5.118478     1.742106  0.139091
 H    -5.747897    -5.118478    -1.742106  0.139091
 H     4.463718    -0.475427    -5.585164  0.143981
 H    -4.463718     0.475427     5.585164  0.143981
 H    -4.380428     4.733249    -3.184653  0.144130
 H     4.380428    -4.733249     3.184653  0.144130
 H     4.135860     5.272071     2.454155  0.144175
 H    -4.135860    -5.272071    -2.454155  0.144175
 H     5.512977     0.653393    -4.702334  0.142562
 H    -5.512977    -0.653393     4.702334  0.142562
 H    -5.455515     4.440867    -1.801740  0.143261
 H     5.455515    -4.440867     1.801740  0.143261
 H     5.250032     4.013541     3.027066  0.142762
 H    -5.250032    -4.013541    -3.027066  0.142762
 H     6.532129    -1.292514    -2.578411  0.135071
 H    -6.532129     1.292514     2.578411  0.135071
 H    -6.413633     1.652064    -2.629255  0.134820
 H     6.413633    -1.652064     2.629255  0.134820
 H     6.388965     3.165596     0.335363  0.134954
 H    -6.388965    -3.165596    -0.335363  0.134954
 H     5.932414     0.334274    -2.200359  0.146203
 H    -5.932414    -0.334274     2.200359  0.146203
 H    -5.880374     2.051674    -0.985128  0.147250
 H     5.880374    -2.051674     0.985128  0.147250
 H     5.802855     2.006625     1.544844  0.145430
 H    -5.802855    -2.006625    -1.544844  0.145430
 H     5.273511    -1.072723    -1.350896  0.157802
 H    -5.273511     1.072723     1.350896  0.157802
 H    -5.171225     0.670311    -1.835837  0.155891
 H     5.171225    -0.670311     1.835837  0.155891
 H     5.203999     1.928740    -0.119774  0.156479
 H    -5.203999    -1.928740     0.119774  0.156479
 H     5.083356    -2.940000    -3.846459  0.133770
 H    -5.083356     2.940000     3.846459  0.133770
 H    -4.897634     2.062765    -4.615863  0.133933
 H     4.897634    -2.062765     4.615863  0.133933
 H     4.882616     4.982405    -0.544801  0.134665
 H    -4.882616    -4.982405     0.544801  0.134665
 H     3.792803    -2.775192    -2.646711  0.158396
 H    -3.792803     2.775192     2.646711  0.158396
 H    -3.612406     1.093094    -3.880373  0.158640
 H     3.612406    -1.093094     3.880373  0.158640
 H     3.637628     3.815893    -1.011284  0.159427
 H    -3.637628    -3.815893     1.011284  0.159427
 H     3.442182    -2.499860    -4.359409  0.152517
 H    -3.442182     2.499860     4.359409  0.152517
 H    -3.278324     2.753172    -4.394875  0.147432
 H     3.278324    -2.753172     4.394875  0.147432
 H     3.223132     5.170088     0.051487  0.153150
 H    -3.223132    -5.170088    -0.051487  0.153150
