   66
 
 N     1.414983    -0.239335     0.816325 -0.673754
 C     2.692151    -0.728550     0.338026  0.112409
 C     0.880089     1.007518     0.489200  0.049848
 C     2.754563    -1.587005    -0.775099  0.198695
 C     4.010549    -2.049716    -1.195048 -0.262143
 H     4.055461    -2.707092    -2.061402  0.116340
 C     3.867810    -0.414251     1.060833  0.192239
 C     5.090019    -0.914757     0.610795 -0.265506
 H     5.991251    -0.670004     1.169204  0.118381
 C     5.189184    -1.718401    -0.531032  0.215307
 C     1.534946    -2.074908    -1.521326 -0.560567
 H     0.613928    -1.839446    -0.988671  0.191612
 H     1.589682    -3.160712    -1.662687  0.156473
 H     1.474311    -1.624725    -2.520324  0.163558
 B     0.634884     1.392792    -1.187526 -0.023507
 H     1.072800     0.653241    -1.999547  0.034079
 B     0.849252     2.360546     1.486594  0.010396
 H     1.389542     2.244530     2.535232  0.020592
 C     6.531879    -2.208738    -1.019560 -0.533990
 H     7.176592    -2.510817    -0.186441  0.159655
 H     7.063681    -1.421203    -1.569734  0.169813
 H     6.425215    -3.064600    -1.693861  0.156793
 C     3.835156     0.424439     2.317530 -0.543339
 H     3.552343     1.460823     2.109965  0.198003
 H     4.820118     0.435032     2.793261  0.158734
 H     3.119547     0.040905     3.055939  0.146708
 B     1.706465     2.334330    -0.075253  0.009453
 H     2.880797     2.222320    -0.184669  0.032803
 B     0.695789     3.175603    -1.262073 -0.008219
 H     1.204616     3.743276    -2.173262  0.007277
 B     0.771317     3.774407     0.423333 -0.098097
 H     1.335233     4.775484     0.726455  0.008749
 H     1.205926    -0.503948     1.772560  0.341445
 N    -1.414956    -0.239369    -0.816280 -0.673742
 C    -2.692136    -0.728561    -0.337990  0.112412
 C    -0.880073     1.007498    -0.489175  0.049798
 C    -2.754596    -1.587003     0.775147  0.198636
 C    -4.010601    -2.049694     1.195056 -0.262201
 H    -4.055552    -2.707062     2.061414  0.116359
 C    -3.867765    -0.414253    -1.060836  0.192257
 C    -5.089996    -0.914739    -0.610834 -0.265554
 H    -5.991205    -0.669983    -1.169281  0.118370
 C    -5.189210    -1.718370     0.530996  0.215279
 C    -1.535013    -2.074887     1.521441 -0.560577
 H    -0.613987    -1.839663     0.988695  0.191587
 H    -1.589886    -3.160648     1.663068  0.156475
 H    -1.474273    -1.624468     2.520327  0.163560
 B    -0.634870     1.392816     1.187536 -0.023475
 H    -1.072787     0.653290     1.999581  0.034079
 B    -0.849252     2.360493    -1.486610  0.010338
 H    -1.389549     2.244437    -2.535240  0.020586
 C    -6.531926    -2.208686     1.019485 -0.533955
 H    -7.176673    -2.510621     0.186342  0.159671
 H    -7.063667    -1.421187     1.569770  0.169818
 H    -6.425303    -3.064639     1.693679  0.156815
 C    -3.835044     0.424405    -2.317554 -0.543362
 H    -3.552173     1.460777    -2.110011  0.197995
 H    -4.819998     0.435043    -2.793301  0.158695
 H    -3.119446     0.040810    -3.055941  0.146709
 B    -1.706463     2.334316     0.075239  0.009415
 H    -2.880793     2.222297     0.184664  0.032796
 B    -0.695796     3.175633     1.262034 -0.008223
 H    -1.204627     3.743325     2.173209  0.007273
 B    -0.771332     3.774388    -0.423388 -0.098077
 H    -1.335259     4.775451    -0.726535  0.008750
 H    -1.205932    -0.503962    -1.772530  0.341439
