   62
 
 I     3.560702     1.566417    -0.224638 28.015165
 I    -3.561393     1.564754     0.225480 28.015067
 C     0.849648    -1.042373    -0.165181 -0.154141
 C    -0.849186    -1.042863     0.164883 -0.154073
 C    -0.699100     0.478043     0.097535  0.109443
 C    -1.425586     1.638316     0.124688 -0.290868
 C    -0.725500     2.890554     0.050922  0.134972
 C    -1.391995     4.144370     0.092327 -0.207974
 C    -0.704552     5.336256     0.046400 -0.131852
 C     0.702152     5.336594    -0.044524 -0.131859
 C     1.390142     4.145037    -0.090671 -0.208070
 C     0.724236     2.890903    -0.049448  0.134979
 C     1.424886     1.639014    -0.123598 -0.290860
 C     0.698933     0.478407    -0.096711  0.109578
 C     1.157785    -1.606373    -1.549080  0.115072
 C     1.701393    -0.823066    -2.574807 -0.167323
 C     1.978131    -1.367601    -3.832304 -0.137983
 C     1.711093    -2.710027    -4.093133 -0.124711
 C     1.155694    -3.502577    -3.085803 -0.130261
 C     0.880044    -2.954891    -1.834746 -0.162221
 C     1.775166    -1.587962     0.934132  0.183105
 C     1.800815    -0.964548     2.195892 -0.166513
 C     2.640294    -1.412806     3.212682 -0.125870
 C     3.492276    -2.497737     2.995898 -0.123829
 C     3.492875    -3.118231     1.748371 -0.131374
 C     2.648486    -2.667220     0.730312 -0.190011
 C    -1.774517    -1.587941    -0.934837  0.183134
 C    -1.800743    -0.963236    -2.195951 -0.166473
 C    -2.640115    -1.410958    -3.213053 -0.125907
 C    -3.491420    -2.496631    -2.997275 -0.123788
 C    -3.491460    -3.118378    -1.750404 -0.131333
 C    -2.647175    -2.667902    -0.731987 -0.190040
 C    -1.157001    -1.608067     1.548383  0.115050
 C    -0.878378    -2.956590     1.833138 -0.162229
 C    -1.153715    -3.505306     3.083808 -0.130312
 C    -1.709663    -2.713816     4.091671 -0.124769
 C    -1.977583    -1.371392     3.831759 -0.137939
 C    -1.701142    -0.825819     2.574643 -0.167332
 H    -2.473336     4.151384     0.167790  0.181552
 H    -1.249415     6.275286     0.082131  0.138959
 H     1.246581     6.275878    -0.080127  0.138974
 H     2.471475     4.152568    -0.166192  0.181521
 H     1.908557     0.226491    -2.402672  0.161404
 H     2.401451    -0.733034    -4.606453  0.131868
 H     1.924371    -3.134124    -5.070578  0.128583
 H     0.926422    -4.547718    -3.275959  0.130307
 H     0.428677    -3.583337    -1.073268  0.140434
 H     1.153175    -0.117237     2.391332  0.143344
 H     2.628975    -0.908827     4.175383  0.130148
 H     4.150826    -2.847482     3.786422  0.127149
 H     4.159119    -3.954810     1.553833  0.127310
 H     2.692295    -3.157184    -0.234234  0.146259
 H    -1.153633    -0.115341    -2.390598  0.143350
 H    -2.629257    -0.906011    -4.175252  0.130159
 H    -4.149915    -2.845912    -3.788050  0.127155
 H    -4.157155    -3.955566    -1.556616  0.127312
 H    -2.690567    -3.158891     0.232056  0.146254
 H    -0.426614    -3.584234     1.071233  0.140405
 H    -0.923757    -4.550427     3.273246  0.130312
 H    -1.922686    -3.138741     5.068812  0.128580
 H    -2.401351    -0.737630     4.606320  0.131885
 H    -1.908963     0.223729     2.403242  0.161406
