   62
 
Br     1.768265     3.323990    -0.378282 -0.057961
Br     1.769798    -3.323113     0.379064 -0.058142
 C    -0.866337     0.843263    -0.194293 -0.155163
 C    -0.866026    -0.843724     0.194331 -0.155206
 C     0.653845    -0.692839     0.126382  0.126359
 C     1.816500    -1.412895     0.186222 -0.175264
 C     3.068098    -0.719359     0.082568  0.132015
 C     4.319299    -1.387554     0.152363 -0.198203
 C     5.509371    -0.699957     0.076442 -0.128965
 C     5.509026     0.702768    -0.074542 -0.128951
 C     4.318616     1.389754    -0.150692 -0.198207
 C     3.067762     0.720946    -0.081025  0.131987
 C     1.815867     1.413842    -0.185051 -0.175304
 C     0.653563     0.693230    -0.125430  0.126423
 C    -1.433231     1.111837    -1.585037  0.111707
 C    -2.774148     0.799652    -1.870243 -0.159602
 C    -3.324011     1.046689    -3.126274 -0.131254
 C    -2.541174     1.607782    -4.137958 -0.124239
 C    -1.206973     1.912138    -3.875592 -0.137048
 C    -0.660290     1.664946    -2.613210 -0.163655
 C    -1.407486     1.804345     0.876016  0.182261
 C    -0.769058     1.885253     2.127295 -0.167472
 C    -1.219214     2.753159     3.118794 -0.129086
 C    -2.321777     3.577416     2.886206 -0.123776
 C    -2.957245     3.523389     1.647475 -0.133355
 C    -2.503283     2.652112     0.654167 -0.191432
 C    -1.405837    -1.804916    -0.876538  0.182192
 C    -0.766657    -1.884647    -2.127484 -0.167385
 C    -1.215398    -2.752618    -3.119558 -0.129100
 C    -2.317229    -3.578124    -2.887890 -0.123766
 C    -2.953399    -3.525281    -1.649468 -0.133380
 C    -2.500871    -2.653923    -0.655572 -0.191473
 C    -1.433712    -1.112734     1.584707  0.111722
 C    -0.661031    -1.665178     2.613440 -0.163686
 C    -1.208350    -1.912769     3.875471 -0.137046
 C    -2.542966    -1.609462     4.136927 -0.124166
 C    -3.325590    -1.049097     3.124670 -0.131224
 C    -2.775089    -0.801707     1.868989 -0.159645
 H     4.323550    -2.464457     0.272407  0.158895
 H     6.449833    -1.240509     0.134666  0.137667
 H     6.449217     1.243797    -0.132569  0.137668
 H     4.322357     2.466639    -0.270930  0.158900
 H    -3.393859     0.342432    -1.105258  0.140203
 H    -4.362844     0.790533    -3.316723  0.129627
 H    -2.966712     1.798209    -5.119539  0.127533
 H    -0.581354     2.344198    -4.652250  0.129330
 H     0.380476     1.907682    -2.436588  0.140422
 H     0.091202     1.258396     2.334334  0.135880
 H    -0.702627     2.786243     4.074338  0.128130
 H    -2.673261     4.257765     3.657336  0.125822
 H    -3.807228     4.168551     1.440150  0.126081
 H    -3.004694     2.652884    -0.305600  0.144488
 H     0.093105    -1.256856    -2.333778  0.135914
 H    -0.698287    -2.784729    -4.074852  0.128117
 H    -2.667600    -4.258497    -3.659495  0.125823
 H    -3.802793    -4.171442    -1.442848  0.126072
 H    -3.002803    -2.655585     0.303918  0.144484
 H     0.380080    -1.906978     2.437549  0.140411
 H    -0.582907    -2.344316     4.652557  0.129318
 H    -2.968999    -1.800158     5.118243  0.127584
 H    -4.364762    -0.793789     3.314392  0.129629
 H    -3.394689    -0.345116     1.103538  0.140202
