   74
 
 C    -0.635200    -0.030239    -0.122362  0.066347
 C    -0.980615    -1.547475    -0.412038 -0.136177
 C     1.055257     0.186293     0.179776  0.082551
 C    -2.414742    -1.744035    -0.972727 -0.095749
 C     1.225345     1.320388     1.236488 -0.315489
 C    -1.722201     0.385527     1.008244  0.062617
 C     1.852913     0.599561    -1.127178 -0.128282
 C    -1.768082     1.899417     1.353507 -0.293130
 C    -2.466048     0.579687    -1.878744 -0.096753
 C     2.785474    -1.726765    -1.569074 -0.084944
 C    -1.034505     0.876388    -1.357121 -0.129577
 C    -3.186999     0.123798     0.440293 -0.127535
 C    -1.594992    -0.507018     2.265064 -0.289341
 C     3.302972     1.070179    -0.782281 -0.101280
 C     3.387368    -0.580812     1.070788 -0.106151
 C    -0.980029     2.391025    -1.031075 -0.287777
 C    -3.435229    -1.353575     0.115059 -0.088438
 C     1.926099    -1.040618     0.721367 -0.136573
 C    -3.487965     0.984832    -0.798836 -0.088489
 C     4.111206    -0.115526    -0.214498 -0.086476
 C     2.670500     1.742092     1.534254 -0.081149
 C     1.972077    -0.554994    -2.152062 -0.282575
 C     4.206846    -1.246156    -1.245646 -0.267307
 C     2.123479    -2.219974    -0.268698 -0.285191
 C    -1.863774    -1.991788     1.930871 -0.086133
 C     3.424736     0.542232     2.109837 -0.265550
 C    -1.985324     2.754751     0.081718 -0.082144
 C     3.316210     2.224478     0.228078 -0.269089
 C    -2.628332    -0.901175    -2.233440 -0.272752
 C    -3.395081     2.477089    -0.460472 -0.269034
 C    -0.886114    -2.457368     0.841809 -0.282823
 C    -3.288257    -2.184746     1.394466 -0.266496
 H    -0.362954     0.671532    -2.193976  0.125964
 H     2.823448    -2.547991    -2.297388  0.110305
 H     2.647280     2.561879     2.265643  0.109760
 H     2.953594     0.216111     3.048041  0.120423
 H    -1.902556    -1.188507    -3.008022  0.121027
 H     0.115689    -2.507718     1.255843  0.145001
 H    -4.503481     0.749983    -1.151686  0.106042
 H    -2.623338     1.191542    -2.779521  0.106489
 H     0.986123    -0.904647    -2.474619  0.138847
 H    -1.246437     2.947456    -1.941636  0.122049
 H     4.712299    -0.887856    -2.153869  0.120619
 H     4.808331    -2.076070    -0.848714  0.121415
 H    -3.872578     0.418787     1.249898  0.105929
 H    -2.625110     2.056129     2.025457  0.117362
 H    -4.156153     2.742317     0.286727  0.121410
 H     4.349405     2.557114     0.401560  0.122678
 H     0.027414     2.719683    -0.771577  0.140428
 H     1.371337     1.450220    -1.613081  0.126711
 H     2.765171     3.090060    -0.166820  0.121995
 H    -3.628523    -1.084469    -2.651404  0.122070
 H    -0.305002    -1.918522    -1.184919  0.122187
 H     2.472611    -0.175069    -3.054564  0.122401
 H     1.496446    -1.403152     1.660925  0.122797
 H     3.766166     1.404262    -1.722880  0.107834
 H    -3.472250    -3.249478     1.193037  0.120663
 H    -4.035860    -1.863106     2.133578  0.120313
 H    -0.601894    -0.407593     2.719420  0.132469
 H    -2.529294    -2.809640    -1.221110  0.106498
 H     4.466221     0.802010     2.347281  0.121483
 H     0.760103     1.007407     2.176413  0.135748
 H    -1.719910    -2.596454     2.836632  0.109390
 H    -3.592923     3.087195    -1.353244  0.119992
 H     0.703300     2.214273     0.907876  0.143029
 H     2.779367    -2.960110     0.212373  0.120955
 H     1.202408    -2.749755    -0.498079  0.150321
 H    -0.901768     2.237301     1.916977  0.137653
 H    -1.883851     3.818506     0.335854  0.109679
 H    -4.454901    -1.465144    -0.283586  0.105400
 H     3.904364    -1.463419     1.474867  0.109807
 H    -1.140437    -3.483712     0.538796  0.119688
 H    -2.315987    -0.163597     3.021975  0.119815
 H     5.122178     0.229393     0.049327  0.106277
