   23
 
 C    -3.088837     1.184082     0.000020  0.092646
 C    -4.474787     1.199720     0.000005 -0.154717
 C    -5.171613    -0.009895    -0.000013 -0.058777
 C    -4.455456    -1.211186     0.000000 -0.158484
 C    -3.072768    -1.174113     0.000023  0.098283
 N    -2.412276     0.011044     0.000031 -0.384047
 C    -0.931335     0.005180    -0.000010  0.171079
 C    -0.024219     1.256756     0.000692 -0.330753
 C    -0.025511    -0.628755     1.089320 -0.302359
 C    -0.025539    -0.627517    -1.090087 -0.302342
 C     0.896472    -0.002704    -0.000035 -0.052659
 I     3.025880    -0.000102     0.000007 28.097771
 H    -2.486639     2.083638     0.000036  0.237888
 H    -4.992277     2.152446     0.000014  0.223692
 H    -6.256934    -0.018573    -0.000006  0.224409
 H    -4.959510    -2.171110    -0.000002  0.223786
 H    -2.455971    -2.064357     0.000060  0.228849
 H    -0.007667     1.860937     0.911255  0.192666
 H    -0.007641     1.861962    -0.909193  0.192665
 H    -0.015985    -1.719274     1.158753  0.185648
 H    -0.022713    -0.145689     2.068911  0.194532
 H    -0.022764    -0.143334    -2.069127  0.194492
 H    -0.016052    -1.717956    -1.160763  0.185650
