   50
 
 B    -0.000098     1.913543     1.431274  0.055223
 B     1.438567     2.813191     0.888812  0.004353
 B     1.438656     2.813192    -0.888631  0.004364
 B    -0.000089     3.683542     1.448264 -0.034636
 B     0.890184     4.246665     0.000052 -0.092651
 C     0.864934     1.474356     0.000050 -0.039471
 C     2.712094     0.058547    -0.000193  0.017666
 H     3.387489     0.923124    -0.000868  0.154035
 N     1.438559     0.191363     0.000269 -0.338328
 C     3.359346    -1.257316     0.000047  0.130994
 C     4.761152    -1.327192    -0.000938 -0.177952
 H     5.343230    -0.408439    -0.001858  0.140425
 C     5.406228    -2.563360    -0.000752 -0.133210
 H     6.491506    -2.609209    -0.001528  0.140033
 C     4.653491    -3.739143     0.000448 -0.116456
 H     5.153807    -4.703765     0.000600  0.139509
 C     3.254351    -3.677484     0.001464 -0.132493
 H     2.671675    -4.594568     0.002430  0.137867
 C     2.608639    -2.446268     0.001263 -0.157500
 H     1.525686    -2.376622     0.002060  0.170002
 H     2.444768     2.652603    -1.495654  0.024836
 H    -0.000149     1.133661     2.318212  0.050234
 H     2.444621     2.652495     1.495896  0.024828
 H    -0.000184     4.263201     2.484828  0.014866
 H     1.534471     5.244516     0.000081  0.013447
 B     0.000098     1.913540    -1.431273  0.055224
 B    -1.438567     2.813189    -0.888813  0.004360
 B    -1.438656     2.813194     0.888630  0.004355
 B     0.000089     3.683539    -1.448267 -0.034633
 B    -0.890185     4.246665    -0.000056 -0.092652
 C    -0.864934     1.474356    -0.000048 -0.039460
 C    -2.712094     0.058546     0.000198  0.017657
 H    -3.387489     0.923124     0.000866  0.154032
 N    -1.438559     0.191363    -0.000264 -0.338341
 C    -3.359346    -1.257316    -0.000046  0.131026
 C    -4.761152    -1.327193     0.000934 -0.178005
 H    -5.343230    -0.408440     0.001852  0.140431
 C    -5.406228    -2.563361     0.000746 -0.133200
 H    -6.491506    -2.609209     0.001518  0.140037
 C    -4.653490    -3.739144    -0.000451 -0.116443
 H    -5.153807    -4.703766    -0.000605  0.139501
 C    -3.254350    -3.677484    -0.001462 -0.132513
 H    -2.671675    -4.594568    -0.002426  0.137869
 C    -2.608639    -2.446268    -0.001259 -0.157524
 H    -1.525685    -2.376622    -0.002051  0.170000
 H    -2.444769     2.652606     1.495654  0.024824
 H     0.000148     1.133655    -2.318210  0.050239
 H    -2.444621     2.652491    -1.495896  0.024829
 H     0.000184     4.263196    -2.484831  0.014874
 H    -1.534472     5.244515    -0.000087  0.013447
