   62
 
 C     0.000000     0.000000     0.000000
 C     0.000000     0.000000     1.425172
 C     1.252332     0.000000     2.097061
 C     2.471836     0.015281     1.367578
 C     2.458809     0.024505    -0.051370
 C     1.211539     0.015327    -0.733583
 C    -1.336539    -0.002299     2.188231
 C    -2.091291     1.350850     2.113316
 C    -3.192220     1.589321     2.989002
 C    -3.898524     2.815922     2.961579
 C    -3.516941     3.843411     2.056526
 C    -2.415418     3.623942     1.189524
 C    -1.709487     2.391594     1.219542
 C    -2.276611    -1.457932     1.859365
 C    -1.641227    -2.501599     0.903633
 C    -0.399479    -3.109883     1.255386
 C     0.206887    -4.076416     0.417355
 C    -0.418747    -4.465777    -0.798131
 C    -1.660663    -3.878421    -1.152916
 C    -2.265724    -2.908445    -0.309729
 C    -1.993358    -1.776444     3.348021
 C    -1.280743    -0.564793     3.629962
 C    -0.846346    -0.261402     4.912585
 C    -1.039731    -1.231777     5.980203
 C    -1.692504    -2.515322     5.669695
 C    -2.167146    -2.756623     4.314966
 C    -1.849458    -3.478905     6.730380
 C    -1.405261    -3.211372     8.032910
 C    -0.778226    -1.956870     8.337683
 C    -0.602184    -0.994830     7.333207
Br     0.001133     1.481102     5.295763
Br    -3.024044    -4.475528     3.854218
 C    -3.740800    -1.128113     1.518712
 C    -4.039888    -0.353128     0.360639
 C    -5.376900    -0.042776     0.010961
 C    -6.451243    -0.499281     0.822508
 C    -6.165557    -1.263777     1.983374
 C    -4.821639    -1.571424     2.328027
 H    -0.122786    -0.044312     7.564063
 H    -0.435305    -1.749737     9.353542
 H    -1.538970    -3.960238     8.816377
 H    -2.328561    -4.429744     6.500271
 H    -3.227681     0.023553    -0.262390
 H    -5.576432     0.559390    -0.878592
 H    -7.483780    -0.259188     0.558040
 H    -6.978377    -1.620133     2.621045
 H    -4.628958    -2.160199     3.223526
 H     0.097694    -2.834009     2.185311
 H     1.159609    -4.522478     0.712948
 H     0.045586    -5.214274    -1.444662
 H    -2.167208    -4.176844    -2.074332
 H    -3.233490    -2.498049    -0.592909
 H    -3.501088     0.820426     3.697142
 H    -4.739036     2.967664     3.643152
 H    -4.058258     4.792325     2.036273
 H    -2.094550     4.407519     0.498366
 H    -0.849504     2.263829     0.564347
 H     1.289450    -0.005915     3.185316
 H     3.421189     0.018650     1.908885
 H     3.395626     0.032967    -0.613519
 H     1.181578     0.007547    -1.825728
 H    -0.947025    -0.028298    -0.540371
